version 3
run MildLinear-0-20260421-13:12:08-21908
attr configname MildLinear
attr datetime 20260421-13:12:08
attr datetimef 20260421-131208
attr experiment MildLinear
attr inifile omnetpp.ini
attr iterationvars ""
attr iterationvarsd ""
attr iterationvarsf ""
attr measurement ""
attr network dissertationsim.simulations.linkdegradation.LinkDegradation
attr processid 21908
attr repetition 0
attr replication #0
attr resultdir results
attr runnumber 0
attr seedset 0
config image-path ../../../inet4.5/images
config description "Moderate linear delay and PER increase on r2-r3 from 20s to 40s, followed by hard failure at 45s"
config network dissertationsim.simulations.linkdegradation.LinkDegradation
config sim-time-limit 60s
config output-scalar-file ../../results/linkdegradation/eval/MildLinear-0.sca
config output-vector-file ../../results/linkdegradation/eval/MildLinear-0.vec
config eventlog-file ../../results/linkdegradation/debug/MildLinear-0.elog
config record-eventlog false
config **.ospf.ospfConfig "xmldoc(\"ASConfig.xml\")"
config **.hostA.numApps 2
config **.hostB.numApps 2
config **.hostA.app[0].typename UdpBasicApp
config **.hostA.app[0].destAddresses "\"hostB\""
config **.hostA.app[0].destPort 5000
config **.hostA.app[0].messageLength 512B
config **.hostA.app[0].sendInterval 1s
config **.hostA.app[0].startTime 10s
config **.hostA.app[1].typename UdpBasicApp
config **.hostA.app[1].destAddresses "\"hostB\""
config **.hostA.app[1].destPort 5001
config **.hostA.app[1].messageLength 128B
config **.hostA.app[1].sendInterval 250ms
config **.hostA.app[1].startTime 12s
config **.hostB.app[0].typename UdpSink
config **.hostB.app[0].localPort 5000
config **.hostB.app[1].typename UdpSink
config **.hostB.app[1].localPort 5001
config **.degradationController.firstInterfaceModule "\"^.r2.eth[1]\""
config **.degradationController.secondInterfaceModule "\"^.r3.eth[0]\""
config **.degradationController.startTime 20s
config **.degradationController.endTime 40s
config **.degradationController.updateInterval 0.5s
config **.degradationController.profile "\"mildLinear\""
config **.degradationController.targetDelay 15ms
config **.degradationController.targetPacketErrorRate 0.03
config **.scenarioManager.script "xml(         \"<script>\\n\" +         \"<at t='45s'><disconnect src-module='r2' src-gate='ethg$o[1]'/></at>\\n\" +         \"<at t='45s'><disconnect src-module='r3' src-gate='ethg$o[0]'/></at>\\n\" +         \"</script>\")"
config **.hostA.app[*].packetSent.result-recording-modes count
config **.hostB.app[*].packetReceived.result-recording-modes count
config **.hostB.app[*].throughput.result-recording-modes vector
config **.hostB.app[*].endToEndDelay.result-recording-modes vector
config **.hostB.app[*].rcvdPkSeqNo.result-recording-modes vector
config **.ipv4.ip.packetDropNoRouteFound.result-recording-modes count
config **.ipv4.ip.packetDropInterfaceDown.result-recording-modes count

vector 0 LinkDegradation.hostA.ethernet encapPk:vector(packetBytes) ETV
attr interpolationmode none
attr recordingmode vector(packetBytes)
attr source encapPk
attr title "packets encapsulated, packetBytes"
vector 1 LinkDegradation.hostA.ethernet decapPk:vector(packetBytes) ETV
attr interpolationmode none
attr recordingmode vector(packetBytes)
attr source decapPk
attr title "packets decapsulated, packetBytes"
vector 2 LinkDegradation.hostA.ethernet pauseSent:vector ETV
attr recordingmode vector
attr title "pause sent"
vector 3 LinkDegradation.hostA.lo[0].lo rcvdPkFromHl:vector(packetBytes) ETV
attr interpolationmode none
attr recordingmode vector(packetBytes)
attr source packetReceivedFromUpper
attr title "packets received from higher layer, packetBytes"
vector 4 LinkDegradation.hostA.lo[0].lo passedUpPk:vector(packetBytes) ETV
attr interpolationmode none
attr recordingmode vector(packetBytes)
attr source packetSentToUpper
attr title "packets passed to higher layer, packetBytes"
vector 5 LinkDegradation.hostA.lo[0] packetDropInterfaceDown:vector(packetBytes) ETV
attr interpolationmode none
attr recordingmode vector(packetBytes)
attr source packetDropReasonIsInterfaceDown(packetDropped)
attr title "packet drops: interface down, packetBytes"
vector 6 LinkDegradation.hostA.lo[0] packetDropNoCarrier:vector(packetBytes) ETV
attr interpolationmode none
attr recordingmode vector(packetBytes)
attr source packetDropReasonIsNoCarrier(packetDropped)
attr title "packet drops: no carrier, packetBytes"
vector 7 LinkDegradation.hostA.eth[0].queue queueLength:vector ETV
attr autoWarmupFilter false
attr interpolationmode sample-hold
attr recordingmode vector
attr source "warmup(atomic(constant0(packetPushEnded) + count(packetPushStarted) - count(packetPulled) - count(packetRemoved) - count(packetDropped)))"
attr title "queue length"
attr unit pk
vector 8 LinkDegradation.hostA.eth[0].queue queueBitLength:vector ETV
attr autoWarmupFilter false
attr interpolationmode sample-hold
attr recordingmode vector
attr source "warmup(atomic(constant0(packetPushEnded) + sum(packetLength(packetPushStarted)) - sum(packetLength(packetPulled)) - sum(packetLength(packetRemoved)) - sum(packetLength(packetDropped))))"
attr title "queue bit length"
attr unit b
vector 9 LinkDegradation.hostA.eth[0].queue queueingTime:vector ETV
attr interpolationmode none
attr recordingmode vector
attr source queueingTime(packetPulled)
attr title "queueing times"
attr unit s
vector 10 LinkDegradation.hostA.eth[0].queue incomingPacketLengths:vector ETV
attr interpolationmode none
attr recordingmode vector
attr source packetLength(packetPushStarted)
attr title "incoming packet lengths"
attr unit b
vector 11 LinkDegradation.hostA.eth[0].queue incomingDataRate:vector ETV
attr interpolationmode linear
attr recordingmode vector
attr source throughput(packetPushStarted)
attr title "incoming datarate"
attr unit bps
vector 12 LinkDegradation.hostA.eth[0].queue outgoingPacketLengths:vector ETV
attr interpolationmode none
attr recordingmode vector
attr source packetLength(packetPulled)
attr title "outgoing packet lengths"
attr unit b
vector 13 LinkDegradation.hostA.eth[0].queue outgoingDataRate:vector ETV
attr interpolationmode linear
attr recordingmode vector
attr source throughput(packetPulled)
attr title "outgoing datarate"
attr unit bps
vector 14 LinkDegradation.hostA.eth[0].queue droppedPacketLengthsQueueOverflow:vector ETV
attr interpolationmode none
attr recordingmode vector
attr source packetLength(packetDropReasonIsQueueOverflow(packetDropped))
attr title "dropped packet lengths: queue overflow"
attr unit b
vector 15 LinkDegradation.hostA.eth[0].queue flowQueueingTime:vector ETV
attr interpolationmode none
attr recordingmode vector
attr source queueingTime(demuxFlow(packetPulled))
attr title "flow queueing times"
attr unit s
vector 16 LinkDegradation.hostA.eth[0].queue flowIncomingDataRate:vector ETV
attr interpolationmode linear
attr recordingmode vector
attr source throughput(flowPacketLength(demuxFlow(packetPushStarted)))
attr title "flow specific incoming data rate"
attr unit bps
vector 17 LinkDegradation.hostA.eth[0].queue flowOutgoingDataRate:vector ETV
attr interpolationmode linear
attr recordingmode vector
attr source throughput(flowPacketLength(demuxFlow(packetPulled)))
attr title "flow specific outgoing data rate"
attr unit bps
vector 18 LinkDegradation.hostA.eth[0].mac txPk:vector(packetBytes) ETV
attr interpolationmode none
attr recordingmode vector(packetBytes)
attr source packetSentToLower
attr title "packets transmitted, packetBytes"
vector 19 LinkDegradation.hostA.eth[0].mac rxPkOk:vector(packetBytes) ETV
attr interpolationmode none
attr recordingmode vector(packetBytes)
attr source rxPkOk
attr title "packets received OK, packetBytes"
vector 20 LinkDegradation.hostA.eth[0].mac passedUpPk:vector(packetBytes) ETV
attr interpolationmode none
attr recordingmode vector(packetBytes)
attr source packetSentToUpper
attr title "packets passed to higher layer, packetBytes"
vector 21 LinkDegradation.hostA.eth[0].mac txPausePkUnits:vector ETV
attr interpolationmode none
attr recordingmode vector
attr title "pause units sent"
vector 22 LinkDegradation.hostA.eth[0].mac rxPausePkUnits:vector ETV
attr interpolationmode none
attr recordingmode vector
attr title "pause units received"
vector 23 LinkDegradation.hostA.eth[0].mac packetReceivedFromUpper:vector(packetBytes) ETV
attr interpolationmode none
attr recordingmode vector(packetBytes)
attr source packetReceivedFromUpper
attr title "packet bytes from higher layer, packetBytes"
vector 24 LinkDegradation.hostA.eth[0].mac packetDropIncorrectlyReceived:vector(packetBytes) ETV
attr interpolationmode none
attr recordingmode vector(packetBytes)
attr source packetDropReasonIsIncorrectlyReceived(packetDropped)
attr title "packet drop: incorrectly received, packetBytes"
vector 25 LinkDegradation.hostA.eth[0].mac packetDropInterfaceDown:vector(packetBytes) ETV
attr interpolationmode none
attr recordingmode vector(packetBytes)
attr source packetDropReasonIsInterfaceDown(packetDropped)
attr title "packet drop: interface down, packetBytes"
vector 26 LinkDegradation.hostA.eth[0].mac packetDropNotAddressedToUs:vector(packetBytes) ETV
attr interpolationmode none
attr recordingmode vector(packetBytes)
attr source packetDropReasonIsNotAddressedToUs(packetDropped)
attr title "packet drop: not addressed to us, packetBytes"
vector 27 LinkDegradation.hostA.eth[0] packetDropInterfaceDown:vector(packetBytes) ETV
attr interpolationmode none
attr recordingmode vector(packetBytes)
attr source packetDropReasonIsInterfaceDown(packetDropped)
attr title "packet drops: interface down, packetBytes"
vector 28 LinkDegradation.hostA.eth[0] packetDropNoCarrier:vector(packetBytes) ETV
attr interpolationmode none
attr recordingmode vector(packetBytes)
attr source packetDropReasonIsNoCarrier(packetDropped)
attr title "packet drops: no carrier, packetBytes"
vector 29 LinkDegradation.hostA.ipv4.ip packetDropAddressResolutionFailed:vector(packetBytes) ETV
attr interpolationmode none
attr recordingmode vector(packetBytes)
attr source packetDropReasonIsAddressResolutionFailed(packetDropped)
attr title "packet drop: address resolution failed, packetBytes"
vector 30 LinkDegradation.hostA.ipv4.ip packetDropHopLimitReached:vector(packetBytes) ETV
attr interpolationmode none
attr recordingmode vector(packetBytes)
attr source packetDropReasonIsHopLimitReached(packetDropped)
attr title "packet drop: hop limit reached, packetBytes"
vector 31 LinkDegradation.hostA.ipv4.ip packetDropForwardingDisabled:vector(packetBytes) ETV
attr interpolationmode none
attr recordingmode vector(packetBytes)
attr source packetDropReasonIsForwardingDisabled(packetDropped)
attr title "packet drop: forwarding disabled, packetBytes"
vector 32 LinkDegradation.hostA.ipv4.ip packetDropNoInterfaceFound:vector(packetBytes) ETV
attr interpolationmode none
attr recordingmode vector(packetBytes)
attr source packetDropReasonIsNoInterfaceFound(packetDropped)
attr title "packet drop: no interface found, packetBytes"
vector 33 LinkDegradation.hostA.ipv4.ip packetDropUndefined:vector(packetBytes) ETV
attr interpolationmode none
attr recordingmode vector(packetBytes)
attr source packetDropReasonIsUndefined(packetDropped)
attr title "packet drop: undefined, packetBytes"
vector 34 LinkDegradation.hostA.ipv4.arp arpRequestSent:vector(packetBytes) ETV
attr recordingmode vector(packetBytes)
attr source arpRequestSent
attr title "ARP request sent, packetBytes"
vector 35 LinkDegradation.hostA.ipv4.arp arpReplySent:vector(packetBytes) ETV
attr recordingmode vector(packetBytes)
attr source arpReplySent
attr title "ARP replies sent, packetBytes"
vector 36 LinkDegradation.hostA.udp packetSent:vector(packetBytes) ETV
attr interpolationmode none
attr recordingmode vector(packetBytes)
attr source packetSent
attr title "packets sent, packetBytes"
vector 37 LinkDegradation.hostA.udp packetReceived:vector(packetBytes) ETV
attr interpolationmode none
attr recordingmode vector(packetBytes)
attr source packetReceived
attr title "packets received, packetBytes"
vector 38 LinkDegradation.hostA.udp passedUpPk:vector(count) ETV
attr interpolationmode none
attr recordingmode vector(count)
attr source packetSentToUpper
attr title "packets passed up, count"
vector 39 LinkDegradation.hostA.udp droppedPkWrongPort:vector(count) ETV
attr interpolationmode none
attr recordingmode vector(count)
attr source packetDropReasonIsNoPortFound(packetDropped)
attr title "packets dropped (wrong port), count"
vector 40 LinkDegradation.hostA.udp droppedPkBadChecksum:vector(count) ETV
attr interpolationmode none
attr recordingmode vector(count)
attr source packetDropReasonIsIncorrectlyReceived(packetDropped)
attr title "packets dropped (checksum error), count"
vector 41 LinkDegradation.hostA.app[0] packetReceived:vector(packetBytes) ETV
attr interpolationmode none
attr recordingmode vector(packetBytes)
attr source packetReceived
attr title "packets received, packetBytes"
vector 42 LinkDegradation.hostA.app[0] throughput:vector ETV
attr recordingmode vector
attr source throughput(packetReceived)
attr title throughput
attr unit bps
vector 43 LinkDegradation.hostA.app[0] rcvdPkLifetime:vector ETV
attr interpolationmode none
attr recordingmode vector
attr source dataAge(packetReceived)
attr title "received packet lifetime"
attr unit s
vector 44 LinkDegradation.hostA.app[0] rcvdPkSeqNo:vector ETV
attr interpolationmode none
attr recordingmode vector
attr source appPkSeqNo(packetReceived)
attr title "received packet sequence number"
vector 45 LinkDegradation.hostA.app[1] packetReceived:vector(packetBytes) ETV
attr interpolationmode none
attr recordingmode vector(packetBytes)
attr source packetReceived
attr title "packets received, packetBytes"
vector 46 LinkDegradation.hostA.app[1] throughput:vector ETV
attr recordingmode vector
attr source throughput(packetReceived)
attr title throughput
attr unit bps
vector 47 LinkDegradation.hostA.app[1] rcvdPkLifetime:vector ETV
attr interpolationmode none
attr recordingmode vector
attr source dataAge(packetReceived)
attr title "received packet lifetime"
attr unit s
vector 48 LinkDegradation.hostA.app[1] rcvdPkSeqNo:vector ETV
attr interpolationmode none
attr recordingmode vector
attr source appPkSeqNo(packetReceived)
attr title "received packet sequence number"
vector 49 LinkDegradation.r1.ethernet encapPk:vector(packetBytes) ETV
attr interpolationmode none
attr recordingmode vector(packetBytes)
attr source encapPk
attr title "packets encapsulated, packetBytes"
vector 50 LinkDegradation.r1.ethernet decapPk:vector(packetBytes) ETV
attr interpolationmode none
attr recordingmode vector(packetBytes)
attr source decapPk
attr title "packets decapsulated, packetBytes"
vector 51 LinkDegradation.r1.ethernet pauseSent:vector ETV
attr recordingmode vector
attr title "pause sent"
vector 52 LinkDegradation.r1.lo[0].lo rcvdPkFromHl:vector(packetBytes) ETV
attr interpolationmode none
attr recordingmode vector(packetBytes)
attr source packetReceivedFromUpper
attr title "packets received from higher layer, packetBytes"
vector 53 LinkDegradation.r1.lo[0].lo passedUpPk:vector(packetBytes) ETV
attr interpolationmode none
attr recordingmode vector(packetBytes)
attr source packetSentToUpper
attr title "packets passed to higher layer, packetBytes"
vector 54 LinkDegradation.r1.lo[0] packetDropInterfaceDown:vector(packetBytes) ETV
attr interpolationmode none
attr recordingmode vector(packetBytes)
attr source packetDropReasonIsInterfaceDown(packetDropped)
attr title "packet drops: interface down, packetBytes"
vector 55 LinkDegradation.r1.lo[0] packetDropNoCarrier:vector(packetBytes) ETV
attr interpolationmode none
attr recordingmode vector(packetBytes)
attr source packetDropReasonIsNoCarrier(packetDropped)
attr title "packet drops: no carrier, packetBytes"
vector 56 LinkDegradation.r1.eth[0].queue queueLength:vector ETV
attr autoWarmupFilter false
attr interpolationmode sample-hold
attr recordingmode vector
attr source "warmup(atomic(constant0(packetPushEnded) + count(packetPushStarted) - count(packetPulled) - count(packetRemoved) - count(packetDropped)))"
attr title "queue length"
attr unit pk
vector 57 LinkDegradation.r1.eth[0].queue queueBitLength:vector ETV
attr autoWarmupFilter false
attr interpolationmode sample-hold
attr recordingmode vector
attr source "warmup(atomic(constant0(packetPushEnded) + sum(packetLength(packetPushStarted)) - sum(packetLength(packetPulled)) - sum(packetLength(packetRemoved)) - sum(packetLength(packetDropped))))"
attr title "queue bit length"
attr unit b
vector 58 LinkDegradation.r1.eth[0].queue queueingTime:vector ETV
attr interpolationmode none
attr recordingmode vector
attr source queueingTime(packetPulled)
attr title "queueing times"
attr unit s
vector 59 LinkDegradation.r1.eth[0].queue incomingPacketLengths:vector ETV
attr interpolationmode none
attr recordingmode vector
attr source packetLength(packetPushStarted)
attr title "incoming packet lengths"
attr unit b
vector 60 LinkDegradation.r1.eth[0].queue incomingDataRate:vector ETV
attr interpolationmode linear
attr recordingmode vector
attr source throughput(packetPushStarted)
attr title "incoming datarate"
attr unit bps
vector 61 LinkDegradation.r1.eth[0].queue outgoingPacketLengths:vector ETV
attr interpolationmode none
attr recordingmode vector
attr source packetLength(packetPulled)
attr title "outgoing packet lengths"
attr unit b
vector 62 LinkDegradation.r1.eth[0].queue outgoingDataRate:vector ETV
attr interpolationmode linear
attr recordingmode vector
attr source throughput(packetPulled)
attr title "outgoing datarate"
attr unit bps
vector 63 LinkDegradation.r1.eth[0].queue droppedPacketLengthsQueueOverflow:vector ETV
attr interpolationmode none
attr recordingmode vector
attr source packetLength(packetDropReasonIsQueueOverflow(packetDropped))
attr title "dropped packet lengths: queue overflow"
attr unit b
vector 64 LinkDegradation.r1.eth[0].queue flowQueueingTime:vector ETV
attr interpolationmode none
attr recordingmode vector
attr source queueingTime(demuxFlow(packetPulled))
attr title "flow queueing times"
attr unit s
vector 65 LinkDegradation.r1.eth[0].queue flowIncomingDataRate:vector ETV
attr interpolationmode linear
attr recordingmode vector
attr source throughput(flowPacketLength(demuxFlow(packetPushStarted)))
attr title "flow specific incoming data rate"
attr unit bps
vector 66 LinkDegradation.r1.eth[0].queue flowOutgoingDataRate:vector ETV
attr interpolationmode linear
attr recordingmode vector
attr source throughput(flowPacketLength(demuxFlow(packetPulled)))
attr title "flow specific outgoing data rate"
attr unit bps
vector 67 LinkDegradation.r1.eth[0].mac txPk:vector(packetBytes) ETV
attr interpolationmode none
attr recordingmode vector(packetBytes)
attr source packetSentToLower
attr title "packets transmitted, packetBytes"
vector 68 LinkDegradation.r1.eth[0].mac rxPkOk:vector(packetBytes) ETV
attr interpolationmode none
attr recordingmode vector(packetBytes)
attr source rxPkOk
attr title "packets received OK, packetBytes"
vector 69 LinkDegradation.r1.eth[0].mac passedUpPk:vector(packetBytes) ETV
attr interpolationmode none
attr recordingmode vector(packetBytes)
attr source packetSentToUpper
attr title "packets passed to higher layer, packetBytes"
vector 70 LinkDegradation.r1.eth[0].mac txPausePkUnits:vector ETV
attr interpolationmode none
attr recordingmode vector
attr title "pause units sent"
vector 71 LinkDegradation.r1.eth[0].mac rxPausePkUnits:vector ETV
attr interpolationmode none
attr recordingmode vector
attr title "pause units received"
vector 72 LinkDegradation.r1.eth[0].mac packetReceivedFromUpper:vector(packetBytes) ETV
attr interpolationmode none
attr recordingmode vector(packetBytes)
attr source packetReceivedFromUpper
attr title "packet bytes from higher layer, packetBytes"
vector 73 LinkDegradation.r1.eth[0].mac packetDropIncorrectlyReceived:vector(packetBytes) ETV
attr interpolationmode none
attr recordingmode vector(packetBytes)
attr source packetDropReasonIsIncorrectlyReceived(packetDropped)
attr title "packet drop: incorrectly received, packetBytes"
vector 74 LinkDegradation.r1.eth[0].mac packetDropInterfaceDown:vector(packetBytes) ETV
attr interpolationmode none
attr recordingmode vector(packetBytes)
attr source packetDropReasonIsInterfaceDown(packetDropped)
attr title "packet drop: interface down, packetBytes"
vector 75 LinkDegradation.r1.eth[0].mac packetDropNotAddressedToUs:vector(packetBytes) ETV
attr interpolationmode none
attr recordingmode vector(packetBytes)
attr source packetDropReasonIsNotAddressedToUs(packetDropped)
attr title "packet drop: not addressed to us, packetBytes"
vector 76 LinkDegradation.r1.eth[0] packetDropInterfaceDown:vector(packetBytes) ETV
attr interpolationmode none
attr recordingmode vector(packetBytes)
attr source packetDropReasonIsInterfaceDown(packetDropped)
attr title "packet drops: interface down, packetBytes"
vector 77 LinkDegradation.r1.eth[0] packetDropNoCarrier:vector(packetBytes) ETV
attr interpolationmode none
attr recordingmode vector(packetBytes)
attr source packetDropReasonIsNoCarrier(packetDropped)
attr title "packet drops: no carrier, packetBytes"
vector 78 LinkDegradation.r1.eth[1].queue queueLength:vector ETV
attr autoWarmupFilter false
attr interpolationmode sample-hold
attr recordingmode vector
attr source "warmup(atomic(constant0(packetPushEnded) + count(packetPushStarted) - count(packetPulled) - count(packetRemoved) - count(packetDropped)))"
attr title "queue length"
attr unit pk
vector 79 LinkDegradation.r1.eth[1].queue queueBitLength:vector ETV
attr autoWarmupFilter false
attr interpolationmode sample-hold
attr recordingmode vector
attr source "warmup(atomic(constant0(packetPushEnded) + sum(packetLength(packetPushStarted)) - sum(packetLength(packetPulled)) - sum(packetLength(packetRemoved)) - sum(packetLength(packetDropped))))"
attr title "queue bit length"
attr unit b
vector 80 LinkDegradation.r1.eth[1].queue queueingTime:vector ETV
attr interpolationmode none
attr recordingmode vector
attr source queueingTime(packetPulled)
attr title "queueing times"
attr unit s
vector 81 LinkDegradation.r1.eth[1].queue incomingPacketLengths:vector ETV
attr interpolationmode none
attr recordingmode vector
attr source packetLength(packetPushStarted)
attr title "incoming packet lengths"
attr unit b
vector 82 LinkDegradation.r1.eth[1].queue incomingDataRate:vector ETV
attr interpolationmode linear
attr recordingmode vector
attr source throughput(packetPushStarted)
attr title "incoming datarate"
attr unit bps
vector 83 LinkDegradation.r1.eth[1].queue outgoingPacketLengths:vector ETV
attr interpolationmode none
attr recordingmode vector
attr source packetLength(packetPulled)
attr title "outgoing packet lengths"
attr unit b
vector 84 LinkDegradation.r1.eth[1].queue outgoingDataRate:vector ETV
attr interpolationmode linear
attr recordingmode vector
attr source throughput(packetPulled)
attr title "outgoing datarate"
attr unit bps
vector 85 LinkDegradation.r1.eth[1].queue droppedPacketLengthsQueueOverflow:vector ETV
attr interpolationmode none
attr recordingmode vector
attr source packetLength(packetDropReasonIsQueueOverflow(packetDropped))
attr title "dropped packet lengths: queue overflow"
attr unit b
vector 86 LinkDegradation.r1.eth[1].queue flowQueueingTime:vector ETV
attr interpolationmode none
attr recordingmode vector
attr source queueingTime(demuxFlow(packetPulled))
attr title "flow queueing times"
attr unit s
vector 87 LinkDegradation.r1.eth[1].queue flowIncomingDataRate:vector ETV
attr interpolationmode linear
attr recordingmode vector
attr source throughput(flowPacketLength(demuxFlow(packetPushStarted)))
attr title "flow specific incoming data rate"
attr unit bps
vector 88 LinkDegradation.r1.eth[1].queue flowOutgoingDataRate:vector ETV
attr interpolationmode linear
attr recordingmode vector
attr source throughput(flowPacketLength(demuxFlow(packetPulled)))
attr title "flow specific outgoing data rate"
attr unit bps
vector 89 LinkDegradation.r1.eth[1].mac txPk:vector(packetBytes) ETV
attr interpolationmode none
attr recordingmode vector(packetBytes)
attr source packetSentToLower
attr title "packets transmitted, packetBytes"
vector 90 LinkDegradation.r1.eth[1].mac rxPkOk:vector(packetBytes) ETV
attr interpolationmode none
attr recordingmode vector(packetBytes)
attr source rxPkOk
attr title "packets received OK, packetBytes"
vector 91 LinkDegradation.r1.eth[1].mac passedUpPk:vector(packetBytes) ETV
attr interpolationmode none
attr recordingmode vector(packetBytes)
attr source packetSentToUpper
attr title "packets passed to higher layer, packetBytes"
vector 92 LinkDegradation.r1.eth[1].mac txPausePkUnits:vector ETV
attr interpolationmode none
attr recordingmode vector
attr title "pause units sent"
vector 93 LinkDegradation.r1.eth[1].mac rxPausePkUnits:vector ETV
attr interpolationmode none
attr recordingmode vector
attr title "pause units received"
vector 94 LinkDegradation.r1.eth[1].mac packetReceivedFromUpper:vector(packetBytes) ETV
attr interpolationmode none
attr recordingmode vector(packetBytes)
attr source packetReceivedFromUpper
attr title "packet bytes from higher layer, packetBytes"
vector 95 LinkDegradation.r1.eth[1].mac packetDropIncorrectlyReceived:vector(packetBytes) ETV
attr interpolationmode none
attr recordingmode vector(packetBytes)
attr source packetDropReasonIsIncorrectlyReceived(packetDropped)
attr title "packet drop: incorrectly received, packetBytes"
vector 96 LinkDegradation.r1.eth[1].mac packetDropInterfaceDown:vector(packetBytes) ETV
attr interpolationmode none
attr recordingmode vector(packetBytes)
attr source packetDropReasonIsInterfaceDown(packetDropped)
attr title "packet drop: interface down, packetBytes"
vector 97 LinkDegradation.r1.eth[1].mac packetDropNotAddressedToUs:vector(packetBytes) ETV
attr interpolationmode none
attr recordingmode vector(packetBytes)
attr source packetDropReasonIsNotAddressedToUs(packetDropped)
attr title "packet drop: not addressed to us, packetBytes"
vector 98 LinkDegradation.r1.eth[1] packetDropInterfaceDown:vector(packetBytes) ETV
attr interpolationmode none
attr recordingmode vector(packetBytes)
attr source packetDropReasonIsInterfaceDown(packetDropped)
attr title "packet drops: interface down, packetBytes"
vector 99 LinkDegradation.r1.eth[1] packetDropNoCarrier:vector(packetBytes) ETV
attr interpolationmode none
attr recordingmode vector(packetBytes)
attr source packetDropReasonIsNoCarrier(packetDropped)
attr title "packet drops: no carrier, packetBytes"
vector 100 LinkDegradation.r1.eth[2].queue queueLength:vector ETV
attr autoWarmupFilter false
attr interpolationmode sample-hold
attr recordingmode vector
attr source "warmup(atomic(constant0(packetPushEnded) + count(packetPushStarted) - count(packetPulled) - count(packetRemoved) - count(packetDropped)))"
attr title "queue length"
attr unit pk
vector 101 LinkDegradation.r1.eth[2].queue queueBitLength:vector ETV
attr autoWarmupFilter false
attr interpolationmode sample-hold
attr recordingmode vector
attr source "warmup(atomic(constant0(packetPushEnded) + sum(packetLength(packetPushStarted)) - sum(packetLength(packetPulled)) - sum(packetLength(packetRemoved)) - sum(packetLength(packetDropped))))"
attr title "queue bit length"
attr unit b
vector 102 LinkDegradation.r1.eth[2].queue queueingTime:vector ETV
attr interpolationmode none
attr recordingmode vector
attr source queueingTime(packetPulled)
attr title "queueing times"
attr unit s
vector 103 LinkDegradation.r1.eth[2].queue incomingPacketLengths:vector ETV
attr interpolationmode none
attr recordingmode vector
attr source packetLength(packetPushStarted)
attr title "incoming packet lengths"
attr unit b
vector 104 LinkDegradation.r1.eth[2].queue incomingDataRate:vector ETV
attr interpolationmode linear
attr recordingmode vector
attr source throughput(packetPushStarted)
attr title "incoming datarate"
attr unit bps
vector 105 LinkDegradation.r1.eth[2].queue outgoingPacketLengths:vector ETV
attr interpolationmode none
attr recordingmode vector
attr source packetLength(packetPulled)
attr title "outgoing packet lengths"
attr unit b
vector 106 LinkDegradation.r1.eth[2].queue outgoingDataRate:vector ETV
attr interpolationmode linear
attr recordingmode vector
attr source throughput(packetPulled)
attr title "outgoing datarate"
attr unit bps
vector 107 LinkDegradation.r1.eth[2].queue droppedPacketLengthsQueueOverflow:vector ETV
attr interpolationmode none
attr recordingmode vector
attr source packetLength(packetDropReasonIsQueueOverflow(packetDropped))
attr title "dropped packet lengths: queue overflow"
attr unit b
vector 108 LinkDegradation.r1.eth[2].queue flowQueueingTime:vector ETV
attr interpolationmode none
attr recordingmode vector
attr source queueingTime(demuxFlow(packetPulled))
attr title "flow queueing times"
attr unit s
vector 109 LinkDegradation.r1.eth[2].queue flowIncomingDataRate:vector ETV
attr interpolationmode linear
attr recordingmode vector
attr source throughput(flowPacketLength(demuxFlow(packetPushStarted)))
attr title "flow specific incoming data rate"
attr unit bps
vector 110 LinkDegradation.r1.eth[2].queue flowOutgoingDataRate:vector ETV
attr interpolationmode linear
attr recordingmode vector
attr source throughput(flowPacketLength(demuxFlow(packetPulled)))
attr title "flow specific outgoing data rate"
attr unit bps
vector 111 LinkDegradation.r1.eth[2].mac txPk:vector(packetBytes) ETV
attr interpolationmode none
attr recordingmode vector(packetBytes)
attr source packetSentToLower
attr title "packets transmitted, packetBytes"
vector 112 LinkDegradation.r1.eth[2].mac rxPkOk:vector(packetBytes) ETV
attr interpolationmode none
attr recordingmode vector(packetBytes)
attr source rxPkOk
attr title "packets received OK, packetBytes"
vector 113 LinkDegradation.r1.eth[2].mac passedUpPk:vector(packetBytes) ETV
attr interpolationmode none
attr recordingmode vector(packetBytes)
attr source packetSentToUpper
attr title "packets passed to higher layer, packetBytes"
vector 114 LinkDegradation.r1.eth[2].mac txPausePkUnits:vector ETV
attr interpolationmode none
attr recordingmode vector
attr title "pause units sent"
vector 115 LinkDegradation.r1.eth[2].mac rxPausePkUnits:vector ETV
attr interpolationmode none
attr recordingmode vector
attr title "pause units received"
vector 116 LinkDegradation.r1.eth[2].mac packetReceivedFromUpper:vector(packetBytes) ETV
attr interpolationmode none
attr recordingmode vector(packetBytes)
attr source packetReceivedFromUpper
attr title "packet bytes from higher layer, packetBytes"
vector 117 LinkDegradation.r1.eth[2].mac packetDropIncorrectlyReceived:vector(packetBytes) ETV
attr interpolationmode none
attr recordingmode vector(packetBytes)
attr source packetDropReasonIsIncorrectlyReceived(packetDropped)
attr title "packet drop: incorrectly received, packetBytes"
vector 118 LinkDegradation.r1.eth[2].mac packetDropInterfaceDown:vector(packetBytes) ETV
attr interpolationmode none
attr recordingmode vector(packetBytes)
attr source packetDropReasonIsInterfaceDown(packetDropped)
attr title "packet drop: interface down, packetBytes"
vector 119 LinkDegradation.r1.eth[2].mac packetDropNotAddressedToUs:vector(packetBytes) ETV
attr interpolationmode none
attr recordingmode vector(packetBytes)
attr source packetDropReasonIsNotAddressedToUs(packetDropped)
attr title "packet drop: not addressed to us, packetBytes"
vector 120 LinkDegradation.r1.eth[2] packetDropInterfaceDown:vector(packetBytes) ETV
attr interpolationmode none
attr recordingmode vector(packetBytes)
attr source packetDropReasonIsInterfaceDown(packetDropped)
attr title "packet drops: interface down, packetBytes"
vector 121 LinkDegradation.r1.eth[2] packetDropNoCarrier:vector(packetBytes) ETV
attr interpolationmode none
attr recordingmode vector(packetBytes)
attr source packetDropReasonIsNoCarrier(packetDropped)
attr title "packet drops: no carrier, packetBytes"
vector 122 LinkDegradation.r1.ipv4.ip packetDropAddressResolutionFailed:vector(packetBytes) ETV
attr interpolationmode none
attr recordingmode vector(packetBytes)
attr source packetDropReasonIsAddressResolutionFailed(packetDropped)
attr title "packet drop: address resolution failed, packetBytes"
vector 123 LinkDegradation.r1.ipv4.ip packetDropHopLimitReached:vector(packetBytes) ETV
attr interpolationmode none
attr recordingmode vector(packetBytes)
attr source packetDropReasonIsHopLimitReached(packetDropped)
attr title "packet drop: hop limit reached, packetBytes"
vector 124 LinkDegradation.r1.ipv4.ip packetDropForwardingDisabled:vector(packetBytes) ETV
attr interpolationmode none
attr recordingmode vector(packetBytes)
attr source packetDropReasonIsForwardingDisabled(packetDropped)
attr title "packet drop: forwarding disabled, packetBytes"
vector 125 LinkDegradation.r1.ipv4.ip packetDropNoInterfaceFound:vector(packetBytes) ETV
attr interpolationmode none
attr recordingmode vector(packetBytes)
attr source packetDropReasonIsNoInterfaceFound(packetDropped)
attr title "packet drop: no interface found, packetBytes"
vector 126 LinkDegradation.r1.ipv4.ip packetDropUndefined:vector(packetBytes) ETV
attr interpolationmode none
attr recordingmode vector(packetBytes)
attr source packetDropReasonIsUndefined(packetDropped)
attr title "packet drop: undefined, packetBytes"
vector 127 LinkDegradation.r1.ipv4.arp arpRequestSent:vector(packetBytes) ETV
attr recordingmode vector(packetBytes)
attr source arpRequestSent
attr title "ARP request sent, packetBytes"
vector 128 LinkDegradation.r1.ipv4.arp arpReplySent:vector(packetBytes) ETV
attr recordingmode vector(packetBytes)
attr source arpReplySent
attr title "ARP replies sent, packetBytes"
vector 129 LinkDegradation.r2.ethernet encapPk:vector(packetBytes) ETV
attr interpolationmode none
attr recordingmode vector(packetBytes)
attr source encapPk
attr title "packets encapsulated, packetBytes"
vector 130 LinkDegradation.r2.ethernet decapPk:vector(packetBytes) ETV
attr interpolationmode none
attr recordingmode vector(packetBytes)
attr source decapPk
attr title "packets decapsulated, packetBytes"
vector 131 LinkDegradation.r2.ethernet pauseSent:vector ETV
attr recordingmode vector
attr title "pause sent"
vector 132 LinkDegradation.r2.lo[0].lo rcvdPkFromHl:vector(packetBytes) ETV
attr interpolationmode none
attr recordingmode vector(packetBytes)
attr source packetReceivedFromUpper
attr title "packets received from higher layer, packetBytes"
vector 133 LinkDegradation.r2.lo[0].lo passedUpPk:vector(packetBytes) ETV
attr interpolationmode none
attr recordingmode vector(packetBytes)
attr source packetSentToUpper
attr title "packets passed to higher layer, packetBytes"
vector 134 LinkDegradation.r2.lo[0] packetDropInterfaceDown:vector(packetBytes) ETV
attr interpolationmode none
attr recordingmode vector(packetBytes)
attr source packetDropReasonIsInterfaceDown(packetDropped)
attr title "packet drops: interface down, packetBytes"
vector 135 LinkDegradation.r2.lo[0] packetDropNoCarrier:vector(packetBytes) ETV
attr interpolationmode none
attr recordingmode vector(packetBytes)
attr source packetDropReasonIsNoCarrier(packetDropped)
attr title "packet drops: no carrier, packetBytes"
vector 136 LinkDegradation.r2.eth[0].queue queueLength:vector ETV
attr autoWarmupFilter false
attr interpolationmode sample-hold
attr recordingmode vector
attr source "warmup(atomic(constant0(packetPushEnded) + count(packetPushStarted) - count(packetPulled) - count(packetRemoved) - count(packetDropped)))"
attr title "queue length"
attr unit pk
vector 137 LinkDegradation.r2.eth[0].queue queueBitLength:vector ETV
attr autoWarmupFilter false
attr interpolationmode sample-hold
attr recordingmode vector
attr source "warmup(atomic(constant0(packetPushEnded) + sum(packetLength(packetPushStarted)) - sum(packetLength(packetPulled)) - sum(packetLength(packetRemoved)) - sum(packetLength(packetDropped))))"
attr title "queue bit length"
attr unit b
vector 138 LinkDegradation.r2.eth[0].queue queueingTime:vector ETV
attr interpolationmode none
attr recordingmode vector
attr source queueingTime(packetPulled)
attr title "queueing times"
attr unit s
vector 139 LinkDegradation.r2.eth[0].queue incomingPacketLengths:vector ETV
attr interpolationmode none
attr recordingmode vector
attr source packetLength(packetPushStarted)
attr title "incoming packet lengths"
attr unit b
vector 140 LinkDegradation.r2.eth[0].queue incomingDataRate:vector ETV
attr interpolationmode linear
attr recordingmode vector
attr source throughput(packetPushStarted)
attr title "incoming datarate"
attr unit bps
vector 141 LinkDegradation.r2.eth[0].queue outgoingPacketLengths:vector ETV
attr interpolationmode none
attr recordingmode vector
attr source packetLength(packetPulled)
attr title "outgoing packet lengths"
attr unit b
vector 142 LinkDegradation.r2.eth[0].queue outgoingDataRate:vector ETV
attr interpolationmode linear
attr recordingmode vector
attr source throughput(packetPulled)
attr title "outgoing datarate"
attr unit bps
vector 143 LinkDegradation.r2.eth[0].queue droppedPacketLengthsQueueOverflow:vector ETV
attr interpolationmode none
attr recordingmode vector
attr source packetLength(packetDropReasonIsQueueOverflow(packetDropped))
attr title "dropped packet lengths: queue overflow"
attr unit b
vector 144 LinkDegradation.r2.eth[0].queue flowQueueingTime:vector ETV
attr interpolationmode none
attr recordingmode vector
attr source queueingTime(demuxFlow(packetPulled))
attr title "flow queueing times"
attr unit s
vector 145 LinkDegradation.r2.eth[0].queue flowIncomingDataRate:vector ETV
attr interpolationmode linear
attr recordingmode vector
attr source throughput(flowPacketLength(demuxFlow(packetPushStarted)))
attr title "flow specific incoming data rate"
attr unit bps
vector 146 LinkDegradation.r2.eth[0].queue flowOutgoingDataRate:vector ETV
attr interpolationmode linear
attr recordingmode vector
attr source throughput(flowPacketLength(demuxFlow(packetPulled)))
attr title "flow specific outgoing data rate"
attr unit bps
vector 147 LinkDegradation.r2.eth[0].mac txPk:vector(packetBytes) ETV
attr interpolationmode none
attr recordingmode vector(packetBytes)
attr source packetSentToLower
attr title "packets transmitted, packetBytes"
vector 148 LinkDegradation.r2.eth[0].mac rxPkOk:vector(packetBytes) ETV
attr interpolationmode none
attr recordingmode vector(packetBytes)
attr source rxPkOk
attr title "packets received OK, packetBytes"
vector 149 LinkDegradation.r2.eth[0].mac passedUpPk:vector(packetBytes) ETV
attr interpolationmode none
attr recordingmode vector(packetBytes)
attr source packetSentToUpper
attr title "packets passed to higher layer, packetBytes"
vector 150 LinkDegradation.r2.eth[0].mac txPausePkUnits:vector ETV
attr interpolationmode none
attr recordingmode vector
attr title "pause units sent"
vector 151 LinkDegradation.r2.eth[0].mac rxPausePkUnits:vector ETV
attr interpolationmode none
attr recordingmode vector
attr title "pause units received"
vector 152 LinkDegradation.r2.eth[0].mac packetReceivedFromUpper:vector(packetBytes) ETV
attr interpolationmode none
attr recordingmode vector(packetBytes)
attr source packetReceivedFromUpper
attr title "packet bytes from higher layer, packetBytes"
vector 153 LinkDegradation.r2.eth[0].mac packetDropIncorrectlyReceived:vector(packetBytes) ETV
attr interpolationmode none
attr recordingmode vector(packetBytes)
attr source packetDropReasonIsIncorrectlyReceived(packetDropped)
attr title "packet drop: incorrectly received, packetBytes"
vector 154 LinkDegradation.r2.eth[0].mac packetDropInterfaceDown:vector(packetBytes) ETV
attr interpolationmode none
attr recordingmode vector(packetBytes)
attr source packetDropReasonIsInterfaceDown(packetDropped)
attr title "packet drop: interface down, packetBytes"
vector 155 LinkDegradation.r2.eth[0].mac packetDropNotAddressedToUs:vector(packetBytes) ETV
attr interpolationmode none
attr recordingmode vector(packetBytes)
attr source packetDropReasonIsNotAddressedToUs(packetDropped)
attr title "packet drop: not addressed to us, packetBytes"
vector 156 LinkDegradation.r2.eth[0] packetDropInterfaceDown:vector(packetBytes) ETV
attr interpolationmode none
attr recordingmode vector(packetBytes)
attr source packetDropReasonIsInterfaceDown(packetDropped)
attr title "packet drops: interface down, packetBytes"
vector 157 LinkDegradation.r2.eth[0] packetDropNoCarrier:vector(packetBytes) ETV
attr interpolationmode none
attr recordingmode vector(packetBytes)
attr source packetDropReasonIsNoCarrier(packetDropped)
attr title "packet drops: no carrier, packetBytes"
vector 158 LinkDegradation.r2.eth[1].queue queueLength:vector ETV
attr autoWarmupFilter false
attr interpolationmode sample-hold
attr recordingmode vector
attr source "warmup(atomic(constant0(packetPushEnded) + count(packetPushStarted) - count(packetPulled) - count(packetRemoved) - count(packetDropped)))"
attr title "queue length"
attr unit pk
vector 159 LinkDegradation.r2.eth[1].queue queueBitLength:vector ETV
attr autoWarmupFilter false
attr interpolationmode sample-hold
attr recordingmode vector
attr source "warmup(atomic(constant0(packetPushEnded) + sum(packetLength(packetPushStarted)) - sum(packetLength(packetPulled)) - sum(packetLength(packetRemoved)) - sum(packetLength(packetDropped))))"
attr title "queue bit length"
attr unit b
vector 160 LinkDegradation.r2.eth[1].queue queueingTime:vector ETV
attr interpolationmode none
attr recordingmode vector
attr source queueingTime(packetPulled)
attr title "queueing times"
attr unit s
vector 161 LinkDegradation.r2.eth[1].queue incomingPacketLengths:vector ETV
attr interpolationmode none
attr recordingmode vector
attr source packetLength(packetPushStarted)
attr title "incoming packet lengths"
attr unit b
vector 162 LinkDegradation.r2.eth[1].queue incomingDataRate:vector ETV
attr interpolationmode linear
attr recordingmode vector
attr source throughput(packetPushStarted)
attr title "incoming datarate"
attr unit bps
vector 163 LinkDegradation.r2.eth[1].queue outgoingPacketLengths:vector ETV
attr interpolationmode none
attr recordingmode vector
attr source packetLength(packetPulled)
attr title "outgoing packet lengths"
attr unit b
vector 164 LinkDegradation.r2.eth[1].queue outgoingDataRate:vector ETV
attr interpolationmode linear
attr recordingmode vector
attr source throughput(packetPulled)
attr title "outgoing datarate"
attr unit bps
vector 165 LinkDegradation.r2.eth[1].queue droppedPacketLengthsQueueOverflow:vector ETV
attr interpolationmode none
attr recordingmode vector
attr source packetLength(packetDropReasonIsQueueOverflow(packetDropped))
attr title "dropped packet lengths: queue overflow"
attr unit b
vector 166 LinkDegradation.r2.eth[1].queue flowQueueingTime:vector ETV
attr interpolationmode none
attr recordingmode vector
attr source queueingTime(demuxFlow(packetPulled))
attr title "flow queueing times"
attr unit s
vector 167 LinkDegradation.r2.eth[1].queue flowIncomingDataRate:vector ETV
attr interpolationmode linear
attr recordingmode vector
attr source throughput(flowPacketLength(demuxFlow(packetPushStarted)))
attr title "flow specific incoming data rate"
attr unit bps
vector 168 LinkDegradation.r2.eth[1].queue flowOutgoingDataRate:vector ETV
attr interpolationmode linear
attr recordingmode vector
attr source throughput(flowPacketLength(demuxFlow(packetPulled)))
attr title "flow specific outgoing data rate"
attr unit bps
vector 169 LinkDegradation.r2.eth[1].mac txPk:vector(packetBytes) ETV
attr interpolationmode none
attr recordingmode vector(packetBytes)
attr source packetSentToLower
attr title "packets transmitted, packetBytes"
vector 170 LinkDegradation.r2.eth[1].mac rxPkOk:vector(packetBytes) ETV
attr interpolationmode none
attr recordingmode vector(packetBytes)
attr source rxPkOk
attr title "packets received OK, packetBytes"
vector 171 LinkDegradation.r2.eth[1].mac passedUpPk:vector(packetBytes) ETV
attr interpolationmode none
attr recordingmode vector(packetBytes)
attr source packetSentToUpper
attr title "packets passed to higher layer, packetBytes"
vector 172 LinkDegradation.r2.eth[1].mac txPausePkUnits:vector ETV
attr interpolationmode none
attr recordingmode vector
attr title "pause units sent"
vector 173 LinkDegradation.r2.eth[1].mac rxPausePkUnits:vector ETV
attr interpolationmode none
attr recordingmode vector
attr title "pause units received"
vector 174 LinkDegradation.r2.eth[1].mac packetReceivedFromUpper:vector(packetBytes) ETV
attr interpolationmode none
attr recordingmode vector(packetBytes)
attr source packetReceivedFromUpper
attr title "packet bytes from higher layer, packetBytes"
vector 175 LinkDegradation.r2.eth[1].mac packetDropIncorrectlyReceived:vector(packetBytes) ETV
attr interpolationmode none
attr recordingmode vector(packetBytes)
attr source packetDropReasonIsIncorrectlyReceived(packetDropped)
attr title "packet drop: incorrectly received, packetBytes"
vector 176 LinkDegradation.r2.eth[1].mac packetDropInterfaceDown:vector(packetBytes) ETV
attr interpolationmode none
attr recordingmode vector(packetBytes)
attr source packetDropReasonIsInterfaceDown(packetDropped)
attr title "packet drop: interface down, packetBytes"
vector 177 LinkDegradation.r2.eth[1].mac packetDropNotAddressedToUs:vector(packetBytes) ETV
attr interpolationmode none
attr recordingmode vector(packetBytes)
attr source packetDropReasonIsNotAddressedToUs(packetDropped)
attr title "packet drop: not addressed to us, packetBytes"
vector 178 LinkDegradation.r2.eth[1] packetDropInterfaceDown:vector(packetBytes) ETV
attr interpolationmode none
attr recordingmode vector(packetBytes)
attr source packetDropReasonIsInterfaceDown(packetDropped)
attr title "packet drops: interface down, packetBytes"
vector 179 LinkDegradation.r2.eth[1] packetDropNoCarrier:vector(packetBytes) ETV
attr interpolationmode none
attr recordingmode vector(packetBytes)
attr source packetDropReasonIsNoCarrier(packetDropped)
attr title "packet drops: no carrier, packetBytes"
vector 180 LinkDegradation.r2.ipv4.ip packetDropAddressResolutionFailed:vector(packetBytes) ETV
attr interpolationmode none
attr recordingmode vector(packetBytes)
attr source packetDropReasonIsAddressResolutionFailed(packetDropped)
attr title "packet drop: address resolution failed, packetBytes"
vector 181 LinkDegradation.r2.ipv4.ip packetDropHopLimitReached:vector(packetBytes) ETV
attr interpolationmode none
attr recordingmode vector(packetBytes)
attr source packetDropReasonIsHopLimitReached(packetDropped)
attr title "packet drop: hop limit reached, packetBytes"
vector 182 LinkDegradation.r2.ipv4.ip packetDropForwardingDisabled:vector(packetBytes) ETV
attr interpolationmode none
attr recordingmode vector(packetBytes)
attr source packetDropReasonIsForwardingDisabled(packetDropped)
attr title "packet drop: forwarding disabled, packetBytes"
vector 183 LinkDegradation.r2.ipv4.ip packetDropNoInterfaceFound:vector(packetBytes) ETV
attr interpolationmode none
attr recordingmode vector(packetBytes)
attr source packetDropReasonIsNoInterfaceFound(packetDropped)
attr title "packet drop: no interface found, packetBytes"
vector 184 LinkDegradation.r2.ipv4.ip packetDropUndefined:vector(packetBytes) ETV
attr interpolationmode none
attr recordingmode vector(packetBytes)
attr source packetDropReasonIsUndefined(packetDropped)
attr title "packet drop: undefined, packetBytes"
vector 185 LinkDegradation.r2.ipv4.arp arpRequestSent:vector(packetBytes) ETV
attr recordingmode vector(packetBytes)
attr source arpRequestSent
attr title "ARP request sent, packetBytes"
vector 186 LinkDegradation.r2.ipv4.arp arpReplySent:vector(packetBytes) ETV
attr recordingmode vector(packetBytes)
attr source arpReplySent
attr title "ARP replies sent, packetBytes"
vector 187 LinkDegradation.r4.ethernet encapPk:vector(packetBytes) ETV
attr interpolationmode none
attr recordingmode vector(packetBytes)
attr source encapPk
attr title "packets encapsulated, packetBytes"
vector 188 LinkDegradation.r4.ethernet decapPk:vector(packetBytes) ETV
attr interpolationmode none
attr recordingmode vector(packetBytes)
attr source decapPk
attr title "packets decapsulated, packetBytes"
vector 189 LinkDegradation.r4.ethernet pauseSent:vector ETV
attr recordingmode vector
attr title "pause sent"
vector 190 LinkDegradation.r4.lo[0].lo rcvdPkFromHl:vector(packetBytes) ETV
attr interpolationmode none
attr recordingmode vector(packetBytes)
attr source packetReceivedFromUpper
attr title "packets received from higher layer, packetBytes"
vector 191 LinkDegradation.r4.lo[0].lo passedUpPk:vector(packetBytes) ETV
attr interpolationmode none
attr recordingmode vector(packetBytes)
attr source packetSentToUpper
attr title "packets passed to higher layer, packetBytes"
vector 192 LinkDegradation.r4.lo[0] packetDropInterfaceDown:vector(packetBytes) ETV
attr interpolationmode none
attr recordingmode vector(packetBytes)
attr source packetDropReasonIsInterfaceDown(packetDropped)
attr title "packet drops: interface down, packetBytes"
vector 193 LinkDegradation.r4.lo[0] packetDropNoCarrier:vector(packetBytes) ETV
attr interpolationmode none
attr recordingmode vector(packetBytes)
attr source packetDropReasonIsNoCarrier(packetDropped)
attr title "packet drops: no carrier, packetBytes"
vector 194 LinkDegradation.r4.eth[0].queue queueLength:vector ETV
attr autoWarmupFilter false
attr interpolationmode sample-hold
attr recordingmode vector
attr source "warmup(atomic(constant0(packetPushEnded) + count(packetPushStarted) - count(packetPulled) - count(packetRemoved) - count(packetDropped)))"
attr title "queue length"
attr unit pk
vector 195 LinkDegradation.r4.eth[0].queue queueBitLength:vector ETV
attr autoWarmupFilter false
attr interpolationmode sample-hold
attr recordingmode vector
attr source "warmup(atomic(constant0(packetPushEnded) + sum(packetLength(packetPushStarted)) - sum(packetLength(packetPulled)) - sum(packetLength(packetRemoved)) - sum(packetLength(packetDropped))))"
attr title "queue bit length"
attr unit b
vector 196 LinkDegradation.r4.eth[0].queue queueingTime:vector ETV
attr interpolationmode none
attr recordingmode vector
attr source queueingTime(packetPulled)
attr title "queueing times"
attr unit s
vector 197 LinkDegradation.r4.eth[0].queue incomingPacketLengths:vector ETV
attr interpolationmode none
attr recordingmode vector
attr source packetLength(packetPushStarted)
attr title "incoming packet lengths"
attr unit b
vector 198 LinkDegradation.r4.eth[0].queue incomingDataRate:vector ETV
attr interpolationmode linear
attr recordingmode vector
attr source throughput(packetPushStarted)
attr title "incoming datarate"
attr unit bps
vector 199 LinkDegradation.r4.eth[0].queue outgoingPacketLengths:vector ETV
attr interpolationmode none
attr recordingmode vector
attr source packetLength(packetPulled)
attr title "outgoing packet lengths"
attr unit b
vector 200 LinkDegradation.r4.eth[0].queue outgoingDataRate:vector ETV
attr interpolationmode linear
attr recordingmode vector
attr source throughput(packetPulled)
attr title "outgoing datarate"
attr unit bps
vector 201 LinkDegradation.r4.eth[0].queue droppedPacketLengthsQueueOverflow:vector ETV
attr interpolationmode none
attr recordingmode vector
attr source packetLength(packetDropReasonIsQueueOverflow(packetDropped))
attr title "dropped packet lengths: queue overflow"
attr unit b
vector 202 LinkDegradation.r4.eth[0].queue flowQueueingTime:vector ETV
attr interpolationmode none
attr recordingmode vector
attr source queueingTime(demuxFlow(packetPulled))
attr title "flow queueing times"
attr unit s
vector 203 LinkDegradation.r4.eth[0].queue flowIncomingDataRate:vector ETV
attr interpolationmode linear
attr recordingmode vector
attr source throughput(flowPacketLength(demuxFlow(packetPushStarted)))
attr title "flow specific incoming data rate"
attr unit bps
vector 204 LinkDegradation.r4.eth[0].queue flowOutgoingDataRate:vector ETV
attr interpolationmode linear
attr recordingmode vector
attr source throughput(flowPacketLength(demuxFlow(packetPulled)))
attr title "flow specific outgoing data rate"
attr unit bps
vector 205 LinkDegradation.r4.eth[0].mac txPk:vector(packetBytes) ETV
attr interpolationmode none
attr recordingmode vector(packetBytes)
attr source packetSentToLower
attr title "packets transmitted, packetBytes"
vector 206 LinkDegradation.r4.eth[0].mac rxPkOk:vector(packetBytes) ETV
attr interpolationmode none
attr recordingmode vector(packetBytes)
attr source rxPkOk
attr title "packets received OK, packetBytes"
vector 207 LinkDegradation.r4.eth[0].mac passedUpPk:vector(packetBytes) ETV
attr interpolationmode none
attr recordingmode vector(packetBytes)
attr source packetSentToUpper
attr title "packets passed to higher layer, packetBytes"
vector 208 LinkDegradation.r4.eth[0].mac txPausePkUnits:vector ETV
attr interpolationmode none
attr recordingmode vector
attr title "pause units sent"
vector 209 LinkDegradation.r4.eth[0].mac rxPausePkUnits:vector ETV
attr interpolationmode none
attr recordingmode vector
attr title "pause units received"
vector 210 LinkDegradation.r4.eth[0].mac packetReceivedFromUpper:vector(packetBytes) ETV
attr interpolationmode none
attr recordingmode vector(packetBytes)
attr source packetReceivedFromUpper
attr title "packet bytes from higher layer, packetBytes"
vector 211 LinkDegradation.r4.eth[0].mac packetDropIncorrectlyReceived:vector(packetBytes) ETV
attr interpolationmode none
attr recordingmode vector(packetBytes)
attr source packetDropReasonIsIncorrectlyReceived(packetDropped)
attr title "packet drop: incorrectly received, packetBytes"
vector 212 LinkDegradation.r4.eth[0].mac packetDropInterfaceDown:vector(packetBytes) ETV
attr interpolationmode none
attr recordingmode vector(packetBytes)
attr source packetDropReasonIsInterfaceDown(packetDropped)
attr title "packet drop: interface down, packetBytes"
vector 213 LinkDegradation.r4.eth[0].mac packetDropNotAddressedToUs:vector(packetBytes) ETV
attr interpolationmode none
attr recordingmode vector(packetBytes)
attr source packetDropReasonIsNotAddressedToUs(packetDropped)
attr title "packet drop: not addressed to us, packetBytes"
vector 214 LinkDegradation.r4.eth[0] packetDropInterfaceDown:vector(packetBytes) ETV
attr interpolationmode none
attr recordingmode vector(packetBytes)
attr source packetDropReasonIsInterfaceDown(packetDropped)
attr title "packet drops: interface down, packetBytes"
vector 215 LinkDegradation.r4.eth[0] packetDropNoCarrier:vector(packetBytes) ETV
attr interpolationmode none
attr recordingmode vector(packetBytes)
attr source packetDropReasonIsNoCarrier(packetDropped)
attr title "packet drops: no carrier, packetBytes"
vector 216 LinkDegradation.r4.eth[1].queue queueLength:vector ETV
attr autoWarmupFilter false
attr interpolationmode sample-hold
attr recordingmode vector
attr source "warmup(atomic(constant0(packetPushEnded) + count(packetPushStarted) - count(packetPulled) - count(packetRemoved) - count(packetDropped)))"
attr title "queue length"
attr unit pk
vector 217 LinkDegradation.r4.eth[1].queue queueBitLength:vector ETV
attr autoWarmupFilter false
attr interpolationmode sample-hold
attr recordingmode vector
attr source "warmup(atomic(constant0(packetPushEnded) + sum(packetLength(packetPushStarted)) - sum(packetLength(packetPulled)) - sum(packetLength(packetRemoved)) - sum(packetLength(packetDropped))))"
attr title "queue bit length"
attr unit b
vector 218 LinkDegradation.r4.eth[1].queue queueingTime:vector ETV
attr interpolationmode none
attr recordingmode vector
attr source queueingTime(packetPulled)
attr title "queueing times"
attr unit s
vector 219 LinkDegradation.r4.eth[1].queue incomingPacketLengths:vector ETV
attr interpolationmode none
attr recordingmode vector
attr source packetLength(packetPushStarted)
attr title "incoming packet lengths"
attr unit b
vector 220 LinkDegradation.r4.eth[1].queue incomingDataRate:vector ETV
attr interpolationmode linear
attr recordingmode vector
attr source throughput(packetPushStarted)
attr title "incoming datarate"
attr unit bps
vector 221 LinkDegradation.r4.eth[1].queue outgoingPacketLengths:vector ETV
attr interpolationmode none
attr recordingmode vector
attr source packetLength(packetPulled)
attr title "outgoing packet lengths"
attr unit b
vector 222 LinkDegradation.r4.eth[1].queue outgoingDataRate:vector ETV
attr interpolationmode linear
attr recordingmode vector
attr source throughput(packetPulled)
attr title "outgoing datarate"
attr unit bps
vector 223 LinkDegradation.r4.eth[1].queue droppedPacketLengthsQueueOverflow:vector ETV
attr interpolationmode none
attr recordingmode vector
attr source packetLength(packetDropReasonIsQueueOverflow(packetDropped))
attr title "dropped packet lengths: queue overflow"
attr unit b
vector 224 LinkDegradation.r4.eth[1].queue flowQueueingTime:vector ETV
attr interpolationmode none
attr recordingmode vector
attr source queueingTime(demuxFlow(packetPulled))
attr title "flow queueing times"
attr unit s
vector 225 LinkDegradation.r4.eth[1].queue flowIncomingDataRate:vector ETV
attr interpolationmode linear
attr recordingmode vector
attr source throughput(flowPacketLength(demuxFlow(packetPushStarted)))
attr title "flow specific incoming data rate"
attr unit bps
vector 226 LinkDegradation.r4.eth[1].queue flowOutgoingDataRate:vector ETV
attr interpolationmode linear
attr recordingmode vector
attr source throughput(flowPacketLength(demuxFlow(packetPulled)))
attr title "flow specific outgoing data rate"
attr unit bps
vector 227 LinkDegradation.r4.eth[1].mac txPk:vector(packetBytes) ETV
attr interpolationmode none
attr recordingmode vector(packetBytes)
attr source packetSentToLower
attr title "packets transmitted, packetBytes"
vector 228 LinkDegradation.r4.eth[1].mac rxPkOk:vector(packetBytes) ETV
attr interpolationmode none
attr recordingmode vector(packetBytes)
attr source rxPkOk
attr title "packets received OK, packetBytes"
vector 229 LinkDegradation.r4.eth[1].mac passedUpPk:vector(packetBytes) ETV
attr interpolationmode none
attr recordingmode vector(packetBytes)
attr source packetSentToUpper
attr title "packets passed to higher layer, packetBytes"
vector 230 LinkDegradation.r4.eth[1].mac txPausePkUnits:vector ETV
attr interpolationmode none
attr recordingmode vector
attr title "pause units sent"
vector 231 LinkDegradation.r4.eth[1].mac rxPausePkUnits:vector ETV
attr interpolationmode none
attr recordingmode vector
attr title "pause units received"
vector 232 LinkDegradation.r4.eth[1].mac packetReceivedFromUpper:vector(packetBytes) ETV
attr interpolationmode none
attr recordingmode vector(packetBytes)
attr source packetReceivedFromUpper
attr title "packet bytes from higher layer, packetBytes"
vector 233 LinkDegradation.r4.eth[1].mac packetDropIncorrectlyReceived:vector(packetBytes) ETV
attr interpolationmode none
attr recordingmode vector(packetBytes)
attr source packetDropReasonIsIncorrectlyReceived(packetDropped)
attr title "packet drop: incorrectly received, packetBytes"
vector 234 LinkDegradation.r4.eth[1].mac packetDropInterfaceDown:vector(packetBytes) ETV
attr interpolationmode none
attr recordingmode vector(packetBytes)
attr source packetDropReasonIsInterfaceDown(packetDropped)
attr title "packet drop: interface down, packetBytes"
vector 235 LinkDegradation.r4.eth[1].mac packetDropNotAddressedToUs:vector(packetBytes) ETV
attr interpolationmode none
attr recordingmode vector(packetBytes)
attr source packetDropReasonIsNotAddressedToUs(packetDropped)
attr title "packet drop: not addressed to us, packetBytes"
vector 236 LinkDegradation.r4.eth[1] packetDropInterfaceDown:vector(packetBytes) ETV
attr interpolationmode none
attr recordingmode vector(packetBytes)
attr source packetDropReasonIsInterfaceDown(packetDropped)
attr title "packet drops: interface down, packetBytes"
vector 237 LinkDegradation.r4.eth[1] packetDropNoCarrier:vector(packetBytes) ETV
attr interpolationmode none
attr recordingmode vector(packetBytes)
attr source packetDropReasonIsNoCarrier(packetDropped)
attr title "packet drops: no carrier, packetBytes"
vector 238 LinkDegradation.r4.ipv4.ip packetDropAddressResolutionFailed:vector(packetBytes) ETV
attr interpolationmode none
attr recordingmode vector(packetBytes)
attr source packetDropReasonIsAddressResolutionFailed(packetDropped)
attr title "packet drop: address resolution failed, packetBytes"
vector 239 LinkDegradation.r4.ipv4.ip packetDropHopLimitReached:vector(packetBytes) ETV
attr interpolationmode none
attr recordingmode vector(packetBytes)
attr source packetDropReasonIsHopLimitReached(packetDropped)
attr title "packet drop: hop limit reached, packetBytes"
vector 240 LinkDegradation.r4.ipv4.ip packetDropForwardingDisabled:vector(packetBytes) ETV
attr interpolationmode none
attr recordingmode vector(packetBytes)
attr source packetDropReasonIsForwardingDisabled(packetDropped)
attr title "packet drop: forwarding disabled, packetBytes"
vector 241 LinkDegradation.r4.ipv4.ip packetDropNoInterfaceFound:vector(packetBytes) ETV
attr interpolationmode none
attr recordingmode vector(packetBytes)
attr source packetDropReasonIsNoInterfaceFound(packetDropped)
attr title "packet drop: no interface found, packetBytes"
vector 242 LinkDegradation.r4.ipv4.ip packetDropUndefined:vector(packetBytes) ETV
attr interpolationmode none
attr recordingmode vector(packetBytes)
attr source packetDropReasonIsUndefined(packetDropped)
attr title "packet drop: undefined, packetBytes"
vector 243 LinkDegradation.r4.ipv4.arp arpRequestSent:vector(packetBytes) ETV
attr recordingmode vector(packetBytes)
attr source arpRequestSent
attr title "ARP request sent, packetBytes"
vector 244 LinkDegradation.r4.ipv4.arp arpReplySent:vector(packetBytes) ETV
attr recordingmode vector(packetBytes)
attr source arpReplySent
attr title "ARP replies sent, packetBytes"
vector 245 LinkDegradation.r3.ethernet encapPk:vector(packetBytes) ETV
attr interpolationmode none
attr recordingmode vector(packetBytes)
attr source encapPk
attr title "packets encapsulated, packetBytes"
vector 246 LinkDegradation.r3.ethernet decapPk:vector(packetBytes) ETV
attr interpolationmode none
attr recordingmode vector(packetBytes)
attr source decapPk
attr title "packets decapsulated, packetBytes"
vector 247 LinkDegradation.r3.ethernet pauseSent:vector ETV
attr recordingmode vector
attr title "pause sent"
vector 248 LinkDegradation.r3.lo[0].lo rcvdPkFromHl:vector(packetBytes) ETV
attr interpolationmode none
attr recordingmode vector(packetBytes)
attr source packetReceivedFromUpper
attr title "packets received from higher layer, packetBytes"
vector 249 LinkDegradation.r3.lo[0].lo passedUpPk:vector(packetBytes) ETV
attr interpolationmode none
attr recordingmode vector(packetBytes)
attr source packetSentToUpper
attr title "packets passed to higher layer, packetBytes"
vector 250 LinkDegradation.r3.lo[0] packetDropInterfaceDown:vector(packetBytes) ETV
attr interpolationmode none
attr recordingmode vector(packetBytes)
attr source packetDropReasonIsInterfaceDown(packetDropped)
attr title "packet drops: interface down, packetBytes"
vector 251 LinkDegradation.r3.lo[0] packetDropNoCarrier:vector(packetBytes) ETV
attr interpolationmode none
attr recordingmode vector(packetBytes)
attr source packetDropReasonIsNoCarrier(packetDropped)
attr title "packet drops: no carrier, packetBytes"
vector 252 LinkDegradation.r3.eth[0].queue queueLength:vector ETV
attr autoWarmupFilter false
attr interpolationmode sample-hold
attr recordingmode vector
attr source "warmup(atomic(constant0(packetPushEnded) + count(packetPushStarted) - count(packetPulled) - count(packetRemoved) - count(packetDropped)))"
attr title "queue length"
attr unit pk
vector 253 LinkDegradation.r3.eth[0].queue queueBitLength:vector ETV
attr autoWarmupFilter false
attr interpolationmode sample-hold
attr recordingmode vector
attr source "warmup(atomic(constant0(packetPushEnded) + sum(packetLength(packetPushStarted)) - sum(packetLength(packetPulled)) - sum(packetLength(packetRemoved)) - sum(packetLength(packetDropped))))"
attr title "queue bit length"
attr unit b
vector 254 LinkDegradation.r3.eth[0].queue queueingTime:vector ETV
attr interpolationmode none
attr recordingmode vector
attr source queueingTime(packetPulled)
attr title "queueing times"
attr unit s
vector 255 LinkDegradation.r3.eth[0].queue incomingPacketLengths:vector ETV
attr interpolationmode none
attr recordingmode vector
attr source packetLength(packetPushStarted)
attr title "incoming packet lengths"
attr unit b
vector 256 LinkDegradation.r3.eth[0].queue incomingDataRate:vector ETV
attr interpolationmode linear
attr recordingmode vector
attr source throughput(packetPushStarted)
attr title "incoming datarate"
attr unit bps
vector 257 LinkDegradation.r3.eth[0].queue outgoingPacketLengths:vector ETV
attr interpolationmode none
attr recordingmode vector
attr source packetLength(packetPulled)
attr title "outgoing packet lengths"
attr unit b
vector 258 LinkDegradation.r3.eth[0].queue outgoingDataRate:vector ETV
attr interpolationmode linear
attr recordingmode vector
attr source throughput(packetPulled)
attr title "outgoing datarate"
attr unit bps
vector 259 LinkDegradation.r3.eth[0].queue droppedPacketLengthsQueueOverflow:vector ETV
attr interpolationmode none
attr recordingmode vector
attr source packetLength(packetDropReasonIsQueueOverflow(packetDropped))
attr title "dropped packet lengths: queue overflow"
attr unit b
vector 260 LinkDegradation.r3.eth[0].queue flowQueueingTime:vector ETV
attr interpolationmode none
attr recordingmode vector
attr source queueingTime(demuxFlow(packetPulled))
attr title "flow queueing times"
attr unit s
vector 261 LinkDegradation.r3.eth[0].queue flowIncomingDataRate:vector ETV
attr interpolationmode linear
attr recordingmode vector
attr source throughput(flowPacketLength(demuxFlow(packetPushStarted)))
attr title "flow specific incoming data rate"
attr unit bps
vector 262 LinkDegradation.r3.eth[0].queue flowOutgoingDataRate:vector ETV
attr interpolationmode linear
attr recordingmode vector
attr source throughput(flowPacketLength(demuxFlow(packetPulled)))
attr title "flow specific outgoing data rate"
attr unit bps
vector 263 LinkDegradation.r3.eth[0].mac txPk:vector(packetBytes) ETV
attr interpolationmode none
attr recordingmode vector(packetBytes)
attr source packetSentToLower
attr title "packets transmitted, packetBytes"
vector 264 LinkDegradation.r3.eth[0].mac rxPkOk:vector(packetBytes) ETV
attr interpolationmode none
attr recordingmode vector(packetBytes)
attr source rxPkOk
attr title "packets received OK, packetBytes"
vector 265 LinkDegradation.r3.eth[0].mac passedUpPk:vector(packetBytes) ETV
attr interpolationmode none
attr recordingmode vector(packetBytes)
attr source packetSentToUpper
attr title "packets passed to higher layer, packetBytes"
vector 266 LinkDegradation.r3.eth[0].mac txPausePkUnits:vector ETV
attr interpolationmode none
attr recordingmode vector
attr title "pause units sent"
vector 267 LinkDegradation.r3.eth[0].mac rxPausePkUnits:vector ETV
attr interpolationmode none
attr recordingmode vector
attr title "pause units received"
vector 268 LinkDegradation.r3.eth[0].mac packetReceivedFromUpper:vector(packetBytes) ETV
attr interpolationmode none
attr recordingmode vector(packetBytes)
attr source packetReceivedFromUpper
attr title "packet bytes from higher layer, packetBytes"
vector 269 LinkDegradation.r3.eth[0].mac packetDropIncorrectlyReceived:vector(packetBytes) ETV
attr interpolationmode none
attr recordingmode vector(packetBytes)
attr source packetDropReasonIsIncorrectlyReceived(packetDropped)
attr title "packet drop: incorrectly received, packetBytes"
vector 270 LinkDegradation.r3.eth[0].mac packetDropInterfaceDown:vector(packetBytes) ETV
attr interpolationmode none
attr recordingmode vector(packetBytes)
attr source packetDropReasonIsInterfaceDown(packetDropped)
attr title "packet drop: interface down, packetBytes"
vector 271 LinkDegradation.r3.eth[0].mac packetDropNotAddressedToUs:vector(packetBytes) ETV
attr interpolationmode none
attr recordingmode vector(packetBytes)
attr source packetDropReasonIsNotAddressedToUs(packetDropped)
attr title "packet drop: not addressed to us, packetBytes"
vector 272 LinkDegradation.r3.eth[0] packetDropInterfaceDown:vector(packetBytes) ETV
attr interpolationmode none
attr recordingmode vector(packetBytes)
attr source packetDropReasonIsInterfaceDown(packetDropped)
attr title "packet drops: interface down, packetBytes"
vector 273 LinkDegradation.r3.eth[0] packetDropNoCarrier:vector(packetBytes) ETV
attr interpolationmode none
attr recordingmode vector(packetBytes)
attr source packetDropReasonIsNoCarrier(packetDropped)
attr title "packet drops: no carrier, packetBytes"
vector 274 LinkDegradation.r3.eth[1].queue queueLength:vector ETV
attr autoWarmupFilter false
attr interpolationmode sample-hold
attr recordingmode vector
attr source "warmup(atomic(constant0(packetPushEnded) + count(packetPushStarted) - count(packetPulled) - count(packetRemoved) - count(packetDropped)))"
attr title "queue length"
attr unit pk
vector 275 LinkDegradation.r3.eth[1].queue queueBitLength:vector ETV
attr autoWarmupFilter false
attr interpolationmode sample-hold
attr recordingmode vector
attr source "warmup(atomic(constant0(packetPushEnded) + sum(packetLength(packetPushStarted)) - sum(packetLength(packetPulled)) - sum(packetLength(packetRemoved)) - sum(packetLength(packetDropped))))"
attr title "queue bit length"
attr unit b
vector 276 LinkDegradation.r3.eth[1].queue queueingTime:vector ETV
attr interpolationmode none
attr recordingmode vector
attr source queueingTime(packetPulled)
attr title "queueing times"
attr unit s
vector 277 LinkDegradation.r3.eth[1].queue incomingPacketLengths:vector ETV
attr interpolationmode none
attr recordingmode vector
attr source packetLength(packetPushStarted)
attr title "incoming packet lengths"
attr unit b
vector 278 LinkDegradation.r3.eth[1].queue incomingDataRate:vector ETV
attr interpolationmode linear
attr recordingmode vector
attr source throughput(packetPushStarted)
attr title "incoming datarate"
attr unit bps
vector 279 LinkDegradation.r3.eth[1].queue outgoingPacketLengths:vector ETV
attr interpolationmode none
attr recordingmode vector
attr source packetLength(packetPulled)
attr title "outgoing packet lengths"
attr unit b
vector 280 LinkDegradation.r3.eth[1].queue outgoingDataRate:vector ETV
attr interpolationmode linear
attr recordingmode vector
attr source throughput(packetPulled)
attr title "outgoing datarate"
attr unit bps
vector 281 LinkDegradation.r3.eth[1].queue droppedPacketLengthsQueueOverflow:vector ETV
attr interpolationmode none
attr recordingmode vector
attr source packetLength(packetDropReasonIsQueueOverflow(packetDropped))
attr title "dropped packet lengths: queue overflow"
attr unit b
vector 282 LinkDegradation.r3.eth[1].queue flowQueueingTime:vector ETV
attr interpolationmode none
attr recordingmode vector
attr source queueingTime(demuxFlow(packetPulled))
attr title "flow queueing times"
attr unit s
vector 283 LinkDegradation.r3.eth[1].queue flowIncomingDataRate:vector ETV
attr interpolationmode linear
attr recordingmode vector
attr source throughput(flowPacketLength(demuxFlow(packetPushStarted)))
attr title "flow specific incoming data rate"
attr unit bps
vector 284 LinkDegradation.r3.eth[1].queue flowOutgoingDataRate:vector ETV
attr interpolationmode linear
attr recordingmode vector
attr source throughput(flowPacketLength(demuxFlow(packetPulled)))
attr title "flow specific outgoing data rate"
attr unit bps
vector 285 LinkDegradation.r3.eth[1].mac txPk:vector(packetBytes) ETV
attr interpolationmode none
attr recordingmode vector(packetBytes)
attr source packetSentToLower
attr title "packets transmitted, packetBytes"
vector 286 LinkDegradation.r3.eth[1].mac rxPkOk:vector(packetBytes) ETV
attr interpolationmode none
attr recordingmode vector(packetBytes)
attr source rxPkOk
attr title "packets received OK, packetBytes"
vector 287 LinkDegradation.r3.eth[1].mac passedUpPk:vector(packetBytes) ETV
attr interpolationmode none
attr recordingmode vector(packetBytes)
attr source packetSentToUpper
attr title "packets passed to higher layer, packetBytes"
vector 288 LinkDegradation.r3.eth[1].mac txPausePkUnits:vector ETV
attr interpolationmode none
attr recordingmode vector
attr title "pause units sent"
vector 289 LinkDegradation.r3.eth[1].mac rxPausePkUnits:vector ETV
attr interpolationmode none
attr recordingmode vector
attr title "pause units received"
vector 290 LinkDegradation.r3.eth[1].mac packetReceivedFromUpper:vector(packetBytes) ETV
attr interpolationmode none
attr recordingmode vector(packetBytes)
attr source packetReceivedFromUpper
attr title "packet bytes from higher layer, packetBytes"
vector 291 LinkDegradation.r3.eth[1].mac packetDropIncorrectlyReceived:vector(packetBytes) ETV
attr interpolationmode none
attr recordingmode vector(packetBytes)
attr source packetDropReasonIsIncorrectlyReceived(packetDropped)
attr title "packet drop: incorrectly received, packetBytes"
vector 292 LinkDegradation.r3.eth[1].mac packetDropInterfaceDown:vector(packetBytes) ETV
attr interpolationmode none
attr recordingmode vector(packetBytes)
attr source packetDropReasonIsInterfaceDown(packetDropped)
attr title "packet drop: interface down, packetBytes"
vector 293 LinkDegradation.r3.eth[1].mac packetDropNotAddressedToUs:vector(packetBytes) ETV
attr interpolationmode none
attr recordingmode vector(packetBytes)
attr source packetDropReasonIsNotAddressedToUs(packetDropped)
attr title "packet drop: not addressed to us, packetBytes"
vector 294 LinkDegradation.r3.eth[1] packetDropInterfaceDown:vector(packetBytes) ETV
attr interpolationmode none
attr recordingmode vector(packetBytes)
attr source packetDropReasonIsInterfaceDown(packetDropped)
attr title "packet drops: interface down, packetBytes"
vector 295 LinkDegradation.r3.eth[1] packetDropNoCarrier:vector(packetBytes) ETV
attr interpolationmode none
attr recordingmode vector(packetBytes)
attr source packetDropReasonIsNoCarrier(packetDropped)
attr title "packet drops: no carrier, packetBytes"
vector 296 LinkDegradation.r3.eth[2].queue queueLength:vector ETV
attr autoWarmupFilter false
attr interpolationmode sample-hold
attr recordingmode vector
attr source "warmup(atomic(constant0(packetPushEnded) + count(packetPushStarted) - count(packetPulled) - count(packetRemoved) - count(packetDropped)))"
attr title "queue length"
attr unit pk
vector 297 LinkDegradation.r3.eth[2].queue queueBitLength:vector ETV
attr autoWarmupFilter false
attr interpolationmode sample-hold
attr recordingmode vector
attr source "warmup(atomic(constant0(packetPushEnded) + sum(packetLength(packetPushStarted)) - sum(packetLength(packetPulled)) - sum(packetLength(packetRemoved)) - sum(packetLength(packetDropped))))"
attr title "queue bit length"
attr unit b
vector 298 LinkDegradation.r3.eth[2].queue queueingTime:vector ETV
attr interpolationmode none
attr recordingmode vector
attr source queueingTime(packetPulled)
attr title "queueing times"
attr unit s
vector 299 LinkDegradation.r3.eth[2].queue incomingPacketLengths:vector ETV
attr interpolationmode none
attr recordingmode vector
attr source packetLength(packetPushStarted)
attr title "incoming packet lengths"
attr unit b
vector 300 LinkDegradation.r3.eth[2].queue incomingDataRate:vector ETV
attr interpolationmode linear
attr recordingmode vector
attr source throughput(packetPushStarted)
attr title "incoming datarate"
attr unit bps
vector 301 LinkDegradation.r3.eth[2].queue outgoingPacketLengths:vector ETV
attr interpolationmode none
attr recordingmode vector
attr source packetLength(packetPulled)
attr title "outgoing packet lengths"
attr unit b
vector 302 LinkDegradation.r3.eth[2].queue outgoingDataRate:vector ETV
attr interpolationmode linear
attr recordingmode vector
attr source throughput(packetPulled)
attr title "outgoing datarate"
attr unit bps
vector 303 LinkDegradation.r3.eth[2].queue droppedPacketLengthsQueueOverflow:vector ETV
attr interpolationmode none
attr recordingmode vector
attr source packetLength(packetDropReasonIsQueueOverflow(packetDropped))
attr title "dropped packet lengths: queue overflow"
attr unit b
vector 304 LinkDegradation.r3.eth[2].queue flowQueueingTime:vector ETV
attr interpolationmode none
attr recordingmode vector
attr source queueingTime(demuxFlow(packetPulled))
attr title "flow queueing times"
attr unit s
vector 305 LinkDegradation.r3.eth[2].queue flowIncomingDataRate:vector ETV
attr interpolationmode linear
attr recordingmode vector
attr source throughput(flowPacketLength(demuxFlow(packetPushStarted)))
attr title "flow specific incoming data rate"
attr unit bps
vector 306 LinkDegradation.r3.eth[2].queue flowOutgoingDataRate:vector ETV
attr interpolationmode linear
attr recordingmode vector
attr source throughput(flowPacketLength(demuxFlow(packetPulled)))
attr title "flow specific outgoing data rate"
attr unit bps
vector 307 LinkDegradation.r3.eth[2].mac txPk:vector(packetBytes) ETV
attr interpolationmode none
attr recordingmode vector(packetBytes)
attr source packetSentToLower
attr title "packets transmitted, packetBytes"
vector 308 LinkDegradation.r3.eth[2].mac rxPkOk:vector(packetBytes) ETV
attr interpolationmode none
attr recordingmode vector(packetBytes)
attr source rxPkOk
attr title "packets received OK, packetBytes"
vector 309 LinkDegradation.r3.eth[2].mac passedUpPk:vector(packetBytes) ETV
attr interpolationmode none
attr recordingmode vector(packetBytes)
attr source packetSentToUpper
attr title "packets passed to higher layer, packetBytes"
vector 310 LinkDegradation.r3.eth[2].mac txPausePkUnits:vector ETV
attr interpolationmode none
attr recordingmode vector
attr title "pause units sent"
vector 311 LinkDegradation.r3.eth[2].mac rxPausePkUnits:vector ETV
attr interpolationmode none
attr recordingmode vector
attr title "pause units received"
vector 312 LinkDegradation.r3.eth[2].mac packetReceivedFromUpper:vector(packetBytes) ETV
attr interpolationmode none
attr recordingmode vector(packetBytes)
attr source packetReceivedFromUpper
attr title "packet bytes from higher layer, packetBytes"
vector 313 LinkDegradation.r3.eth[2].mac packetDropIncorrectlyReceived:vector(packetBytes) ETV
attr interpolationmode none
attr recordingmode vector(packetBytes)
attr source packetDropReasonIsIncorrectlyReceived(packetDropped)
[...]
369	3823	24.4	0
369	3823	24.5	0
369	3856	24.6	10240
369	3856	24.7	0
369	3937	24.8	10240
369	3937	24.9	0
369	3937	25	0
369	3980	25.1	10240
369	3980	25.2	0
369	4014	25.3	10240
369	4014	25.4	0
369	4014	25.5	0
369	4047	25.6	10240
369	4047	25.7	0
369	4128	25.8	10240
369	4128	25.9	0
369	4128	26	0
369	4161	26.1	10240
369	4161	26.2	0
369	4195	26.3	10240
369	4195	26.4	0
369	4195	26.5	0
369	4228	26.6	10240
369	4228	26.7	0
369	4309	26.8	10240
369	4309	26.9	0
369	4309	27	0
369	4342	27.1	10240
369	4342	27.2	0
369	4376	27.3	10240
369	4376	27.4	0
369	4376	27.5	0
369	4409	27.6	10240
369	4409	27.7	0
369	4490	27.8	10240
369	4490	27.9	0
369	4490	28	0
369	4523	28.1	10240
369	4523	28.2	0
369	4557	28.3	10240
369	4557	28.4	0
369	4557	28.5	0
369	4590	28.6	10240
369	4590	28.7	0
369	4671	28.8	10240
369	4671	28.9	0
369	4671	29	0
369	4704	29.1	10240
369	4704	29.2	0
369	4738	29.3	10240
369	4738	29.4	0
369	4738	29.5	0
369	4771	29.6	10240
369	4771	29.7	0
369	4852	29.8	10240
369	4852	29.9	0
369	4852	30	0
369	4993	30.1	10240
369	4993	30.2	0
369	5027	30.3	10240
369	5027	30.4	0
369	5027	30.5	0
369	5060	30.6	10240
369	5060	30.7	0
369	5141	30.8	10240
369	5141	30.9	0
369	5141	31	0
369	5174	31.1	10240
369	5174	31.2	0
369	5208	31.3	10240
369	5208	31.4	0
369	5208	31.5	0
369	5241	31.6	10240
369	5241	31.7	0
369	5322	31.8	10240
369	5322	31.9	0
369	5322	32	0
369	5355	32.1	10240
369	5355	32.2	0
369	5389	32.3	10240
369	5389	32.4	0
369	5389	32.5	0
369	5422	32.6	10240
369	5422	32.7	0
369	5503	32.8	10240
369	5503	32.9	0
369	5503	33	0
369	5559	33.1	10240
369	5559	33.2	0
369	5559	33.3	0
369	5559	33.4	0
369	5559	33.5	0
369	5592	33.6	10240
369	5592	33.7	0
369	5673	33.8	10240
369	5673	33.9	0
369	5673	34	0
369	5706	34.1	10240
369	5706	34.2	0
369	5740	34.3	10240
369	5740	34.4	0
369	5740	34.5	0
369	5773	34.6	10240
369	5773	34.7	0
369	5854	34.8	10240
369	5854	34.9	0
369	5854	35	0
369	5897	35.1	10240
369	5897	35.2	0
369	5931	35.3	10240
369	5931	35.4	0
369	5931	35.5	0
369	5964	35.6	10240
369	5964	35.7	0
369	6045	35.8	10240
369	6045	35.9	0
369	6045	36	0
369	6078	36.1	10240
369	6078	36.2	0
369	6112	36.3	10240
369	6112	36.4	0
369	6112	36.5	0
369	6145	36.6	10240
369	6145	36.7	0
369	6226	36.8	10240
369	6226	36.9	0
369	6226	37	0
369	6259	37.1	10240
369	6259	37.2	0
369	6293	37.3	10240
369	6293	37.4	0
369	6293	37.5	0
369	6326	37.6	10240
369	6326	37.7	0
369	6407	37.8	10240
369	6407	37.9	0
369	6407	38	0
369	6440	38.1	10240
369	6440	38.2	0
369	6474	38.3	10240
369	6474	38.4	0
369	6474	38.5	0
369	6507	38.6	10240
369	6507	38.7	0
369	6588	38.8	10240
369	6588	38.9	0
369	6588	39	0
369	6621	39.1	10240
369	6621	39.2	0
369	6655	39.3	10240
369	6655	39.4	0
369	6655	39.5	0
369	6688	39.6	10240
369	6688	39.7	0
369	6876	39.8	10240
369	6876	39.9	0
369	6876	40	0
369	7027	40.1	10240
369	7027	40.2	0
369	7060	40.3	10240
369	7060	40.4	0
369	7060	40.5	0
369	7093	40.6	10240
369	7093	40.7	0
369	7218	40.8	10240
369	7218	40.9	0
369	7218	41	0
369	7251	41.1	10240
369	7251	41.2	0
369	7284	41.3	10240
369	7284	41.4	0
369	7284	41.5	0
369	7317	41.6	10240
369	7317	41.7	0
369	7397	41.8	10240
369	7397	41.9	0
369	7397	42	0
369	7430	42.1	10240
369	7430	42.2	0
369	7463	42.3	10240
369	7463	42.4	0
369	7463	42.5	0
369	7496	42.6	10240
369	7496	42.7	0
369	7576	42.8	10240
369	7576	42.9	0
369	7576	43	0
369	7609	43.1	10240
369	7609	43.2	0
369	7642	43.3	10240
369	7642	43.4	0
369	7642	43.5	0
369	7675	43.6	10240
369	7675	43.7	0
369	7755	43.8	10240
369	7755	43.9	0
369	7755	44	0
369	7788	44.1	10240
369	7788	44.2	0
369	7821	44.3	10240
369	7821	44.4	0
369	7821	44.5	0
369	7854	44.6	10240
369	7854	44.7	0
369	8006	44.8	10240
369	8006	44.9	0
369	8006	45	0
369	8039	45.1	10240
369	8039	45.2	0
369	8072	45.3	10240
369	8072	45.4	0
369	8072	45.5	0
369	8105	45.6	10240
369	8105	45.7	0
369	8237	45.8	10240
369	8237	45.9	0
369	8237	46	0
369	8270	46.1	10240
369	8270	46.2	0
369	8303	46.3	10240
369	8303	46.4	0
369	8303	46.5	0
369	8336	46.6	10240
369	8336	46.7	0
369	8414	46.8	10240
369	8414	46.9	0
369	8414	47	0
369	8447	47.1	10240
369	8447	47.2	0
369	8480	47.3	10240
369	8480	47.4	0
369	8480	47.5	0
369	8513	47.6	10240
369	8513	47.7	0
369	8591	47.8	10240
369	8591	47.9	0
369	8591	48	0
369	8624	48.1	10240
369	8624	48.2	0
369	8657	48.3	10240
369	8657	48.4	0
369	8657	48.5	0
369	8690	48.6	10240
369	8690	48.7	0
369	8768	48.8	10240
369	8768	48.9	0
369	8768	49	0
369	8801	49.1	10240
369	8801	49.2	0
369	8834	49.3	10240
369	8834	49.4	0
369	8834	49.5	0
369	8867	49.6	10240
369	8867	49.7	0
369	9001	49.8	10240
369	9001	49.9	0
369	9001	50	0
369	9112	50.1	10240
369	9112	50.2	0
369	9145	50.3	10240
369	9145	50.4	0
369	9145	50.5	0
369	9178	50.6	10240
369	9178	50.7	0
369	9310	50.8	10240
369	9310	50.9	0
369	9310	51	0
369	9343	51.1	10240
369	9343	51.2	0
369	9376	51.3	10240
369	9376	51.4	0
369	9376	51.5	0
369	9409	51.6	10240
369	9409	51.7	0
369	9487	51.8	10240
369	9487	51.9	0
369	9487	52	0
369	9520	52.1	10240
369	9520	52.2	0
369	9553	52.3	10240
369	9553	52.4	0
369	9553	52.5	0
369	9586	52.6	10240
369	9586	52.7	0
369	9664	52.8	10240
369	9664	52.9	0
369	9664	53	0
369	9697	53.1	10240
369	9697	53.2	0
369	9730	53.3	10240
369	9730	53.4	0
369	9730	53.5	0
369	9763	53.6	10240
369	9763	53.7	0
369	9841	53.8	10240
369	9841	53.9	0
369	9841	54	0
369	9874	54.1	10240
369	9874	54.2	0
369	9907	54.3	10240
369	9907	54.4	0
369	9907	54.5	0
369	9940	54.6	10240
369	9940	54.7	0
369	10018	54.8	10240
369	10018	54.9	0
369	10018	55	0
369	10051	55.1	10240
369	10051	55.2	0
369	10084	55.3	10240
369	10084	55.4	0
369	10084	55.5	0
369	10117	55.6	10240
369	10117	55.7	0
369	10195	55.8	10240
369	10195	55.9	0
369	10195	56	0
369	10228	56.1	10240
369	10228	56.2	0
369	10261	56.3	10240
369	10261	56.4	0
369	10261	56.5	0
369	10294	56.6	10240
369	10294	56.7	0
369	10372	56.8	10240
369	10372	56.9	0
369	10372	57	0
369	10405	57.1	10240
369	10405	57.2	0
369	10438	57.3	10240
369	10438	57.4	0
369	10438	57.5	0
369	10471	57.6	10240
369	10471	57.7	0
369	10549	57.8	10240
369	10549	57.9	0
369	10549	58	0
369	10582	58.1	10240
369	10582	58.2	0
369	10615	58.3	10240
369	10615	58.4	0
369	10615	58.5	0
369	10648	58.6	10240
369	10648	58.7	0
369	10726	58.8	10240
369	10726	58.9	0
369	10726	59	0
369	10759	59.1	10240
369	10759	59.2	0
369	10792	59.3	10240
369	10792	59.4	0
369	10792	59.5	0
369	10825	59.6	10240
369	10825	59.7	0
369	10849	59.8	10240
369	10849	59.9	0
369	10849	60	0
370	1453	12.00005864	5.864e-05
370	1514	12.25005864	5.864e-05
370	1547	12.50005864	5.864e-05
370	1580	12.75005864	5.864e-05
370	1660	13.00019704	0.00019704
370	1693	13.25005864	5.864e-05
370	1726	13.50005864	5.864e-05
370	1759	13.75005864	5.864e-05
370	1839	14.00019704	0.00019704
370	1872	14.25005864	5.864e-05
370	1905	14.50005864	5.864e-05
370	1938	14.75005864	5.864e-05
370	2018	15.00019704	0.00019704
370	2061	15.25005864	5.864e-05
370	2094	15.50005864	5.864e-05
370	2127	15.75005864	5.864e-05
370	2207	16.00019704	0.00019704
370	2240	16.25005864	5.864e-05
370	2273	16.50005864	5.864e-05
370	2306	16.75005864	5.864e-05
370	2386	17.00019704	0.00019704
370	2419	17.25005864	5.864e-05
370	2452	17.50005864	5.864e-05
370	2485	17.75005864	5.864e-05
370	2565	18.00019704	0.00019704
370	2598	18.25005864	5.864e-05
370	2631	18.50005864	5.864e-05
370	2664	18.75005864	5.864e-05
370	2744	19.00019704	0.00019704
370	2777	19.25005864	5.864e-05
370	2810	19.50005864	5.864e-05
370	2843	19.75005864	5.864e-05
370	2924	20.00019704	0.00019704
370	3065	20.25005864	5.864e-05
370	3099	20.5004336375	0.0004336375
370	3132	20.7504336375	0.0004336375
370	3213	21.000947035	0.000947035
370	3246	21.250808635	0.000808635
370	3280	21.5011836325	0.0011836325
370	3313	21.7511836325	0.0011836325
370	3394	22.00169703	0.00169703
370	3427	22.25155863	0.00155863
370	3461	22.5019336275	0.0019336275
370	3494	22.7519336275	0.0019336275
370	3575	23.002447025	0.002447025
370	3608	23.252308625	0.002308625
370	3642	23.5026836225	0.0026836225
370	3675	23.7526836225	0.0026836225
370	3756	24.00319702	0.00319702
370	3789	24.25305862	0.00305862
370	3823	24.5034336175	0.0034336175
370	3856	24.7534336175	0.0034336175
370	3937	25.003947015	0.003947015
370	3980	25.253808615	0.003808615
370	4014	25.5041836125	0.0041836125
370	4047	25.7541836125	0.0041836125
370	4128	26.00469701	0.00469701
370	4161	26.25455861	0.00455861
370	4195	26.5049336075	0.0049336075
370	4228	26.7549336075	0.0049336075
370	4309	27.005447005	0.005447005
370	4342	27.255308605	0.005308605
370	4376	27.5056836025	0.0056836025
370	4409	27.7556836025	0.0056836025
370	4490	28.006197	0.006197
370	4523	28.2560586	0.0060586
370	4557	28.5064335975	0.0064335975
370	4590	28.7564335975	0.0064335975
370	4671	29.006946995	0.006946995
370	4704	29.256808595	0.006808595
370	4738	29.5071835925	0.0071835925
370	4771	29.7571835925	0.0071835925
370	4852	30.00769699	0.00769699
370	4993	30.25755859	0.00755859
370	5027	30.5079335875	0.0079335875
370	5060	30.7579335875	0.0079335875
370	5141	31.008446985	0.008446985
370	5174	31.258308585	0.008308585
370	5208	31.5086835825	0.0086835825
370	5241	31.7586835825	0.0086835825
370	5322	32.00919698	0.00919698
370	5355	32.25905858	0.00905858
370	5389	32.5094335775	0.0094335775
370	5422	32.7594335775	0.0094335775
370	5503	33.009946975	0.009946975
370	5559	33.5101835725	0.0101835725
370	5592	33.7601835725	0.0101835725
370	5673	34.01069697	0.01069697
370	5706	34.26055857	0.01055857
370	5740	34.5109335675	0.0109335675
370	5773	34.7609335675	0.0109335675
370	5854	35.011446965	0.011446965
370	5897	35.261308565	0.011308565
370	5931	35.5116835625	0.0116835625
370	5964	35.7616835625	0.0116835625
370	6045	36.01219696	0.01219696
370	6078	36.26205856	0.01205856
370	6112	36.5124335575	0.0124335575
370	6145	36.7624335575	0.0124335575
370	6226	37.012946955	0.012946955
370	6259	37.262808555	0.012808555
370	6293	37.5131835525	0.0131835525
370	6326	37.7631835525	0.0131835525
370	6407	38.01369695	0.01369695
370	6440	38.26355855	0.01355855
370	6474	38.5139335475	0.0139335475
370	6507	38.7639335475	0.0139335475
370	6588	39.014446945	0.014446945
370	6621	39.264308545	0.014308545
370	6655	39.5146835425	0.0146835425
370	6688	39.7646835425	0.0146835425
370	6876	40.01519694	0.01519694
370	7027	40.26505854	0.01505854
370	7060	40.51505854	0.01505854
370	7093	40.76505854	0.01505854
370	7218	41.01519694	0.01519694
370	7251	41.26505854	0.01505854
370	7284	41.51505854	0.01505854
370	7317	41.76505854	0.01505854
370	7397	42.01519694	0.01519694
370	7430	42.26505854	0.01505854
370	7463	42.51505854	0.01505854
370	7496	42.76505854	0.01505854
370	7576	43.01519694	0.01519694
370	7609	43.26505854	0.01505854
370	7642	43.51505854	0.01505854
370	7675	43.76505854	0.01505854
370	7755	44.01519694	0.01519694
370	7788	44.26505854	0.01505854
370	7821	44.51505854	0.01505854
370	7854	44.76505854	0.01505854
370	8006	45.00019704	0.00019704
370	8039	45.25005864	5.864e-05
370	8072	45.50005864	5.864e-05
370	8105	45.75005864	5.864e-05
370	8237	46.00019704	0.00019704
370	8270	46.25005864	5.864e-05
370	8303	46.50005864	5.864e-05
370	8336	46.75005864	5.864e-05
370	8414	47.00019704	0.00019704
370	8447	47.25005864	5.864e-05
370	8480	47.50005864	5.864e-05
370	8513	47.75005864	5.864e-05
370	8591	48.00019704	0.00019704
370	8624	48.25005864	5.864e-05
370	8657	48.50005864	5.864e-05
370	8690	48.75005864	5.864e-05
370	8768	49.00019704	0.00019704
370	8801	49.25005864	5.864e-05
370	8834	49.50005864	5.864e-05
370	8867	49.75005864	5.864e-05
370	9001	50.00019704	0.00019704
370	9112	50.25005864	5.864e-05
370	9145	50.50005864	5.864e-05
370	9178	50.75005864	5.864e-05
370	9310	51.00019704	0.00019704
370	9343	51.25005864	5.864e-05
370	9376	51.50005864	5.864e-05
370	9409	51.75005864	5.864e-05
370	9487	52.00019704	0.00019704
370	9520	52.25005864	5.864e-05
370	9553	52.50005864	5.864e-05
370	9586	52.75005864	5.864e-05
370	9664	53.00019704	0.00019704
370	9697	53.25005864	5.864e-05
370	9730	53.50005864	5.864e-05
370	9763	53.75005864	5.864e-05
370	9841	54.00019704	0.00019704
370	9874	54.25005864	5.864e-05
370	9907	54.50005864	5.864e-05
370	9940	54.75005864	5.864e-05
370	10018	55.00019704	0.00019704
370	10051	55.25005864	5.864e-05
370	10084	55.50005864	5.864e-05
370	10117	55.75005864	5.864e-05
370	10195	56.00019704	0.00019704
370	10228	56.25005864	5.864e-05
370	10261	56.50005864	5.864e-05
370	10294	56.75005864	5.864e-05
370	10372	57.00019704	0.00019704
370	10405	57.25005864	5.864e-05
370	10438	57.50005864	5.864e-05
370	10471	57.75005864	5.864e-05
370	10549	58.00019704	0.00019704
370	10582	58.25005864	5.864e-05
370	10615	58.50005864	5.864e-05
370	10648	58.75005864	5.864e-05
370	10726	59.00019704	0.00019704
370	10759	59.25005864	5.864e-05
370	10792	59.50005864	5.864e-05
370	10825	59.75005864	5.864e-05
371	1453	12.00005864	0
371	1514	12.25005864	1
371	1547	12.50005864	2
371	1580	12.75005864	3
371	1660	13.00019704	4
371	1693	13.25005864	5
371	1726	13.50005864	6
371	1759	13.75005864	7
371	1839	14.00019704	8
371	1872	14.25005864	9
371	1905	14.50005864	10
371	1938	14.75005864	11
371	2018	15.00019704	12
371	2061	15.25005864	13
371	2094	15.50005864	14
371	2127	15.75005864	15
371	2207	16.00019704	16
371	2240	16.25005864	17
371	2273	16.50005864	18
371	2306	16.75005864	19
371	2386	17.00019704	20
371	2419	17.25005864	21
371	2452	17.50005864	22
371	2485	17.75005864	23
371	2565	18.00019704	24
371	2598	18.25005864	25
371	2631	18.50005864	26
371	2664	18.75005864	27
371	2744	19.00019704	28
371	2777	19.25005864	29
371	2810	19.50005864	30
371	2843	19.75005864	31
371	2924	20.00019704	32
371	3065	20.25005864	33
371	3099	20.5004336375	34
371	3132	20.7504336375	35
371	3213	21.000947035	36
371	3246	21.250808635	37
371	3280	21.5011836325	38
371	3313	21.7511836325	39
371	3394	22.00169703	40
371	3427	22.25155863	41
371	3461	22.5019336275	42
371	3494	22.7519336275	43
371	3575	23.002447025	44
371	3608	23.252308625	45
371	3642	23.5026836225	46
371	3675	23.7526836225	47
371	3756	24.00319702	48
371	3789	24.25305862	49
371	3823	24.5034336175	50
371	3856	24.7534336175	51
371	3937	25.003947015	52
371	3980	25.253808615	53
371	4014	25.5041836125	54
371	4047	25.7541836125	55
371	4128	26.00469701	56
371	4161	26.25455861	57
371	4195	26.5049336075	58
371	4228	26.7549336075	59
371	4309	27.005447005	60
371	4342	27.255308605	61
371	4376	27.5056836025	62
371	4409	27.7556836025	63
371	4490	28.006197	64
371	4523	28.2560586	65
371	4557	28.5064335975	66
371	4590	28.7564335975	67
371	4671	29.006946995	68
371	4704	29.256808595	69
371	4738	29.5071835925	70
371	4771	29.7571835925	71
371	4852	30.00769699	72
371	4993	30.25755859	73
371	5027	30.5079335875	74
371	5060	30.7579335875	75
371	5141	31.008446985	76
371	5174	31.258308585	77
371	5208	31.5086835825	78
371	5241	31.7586835825	79
371	5322	32.00919698	80
371	5355	32.25905858	81
371	5389	32.5094335775	82
371	5422	32.7594335775	83
371	5503	33.009946975	84
371	5559	33.5101835725	86
371	5592	33.7601835725	87
371	5673	34.01069697	88
371	5706	34.26055857	89
371	5740	34.5109335675	90
371	5773	34.7609335675	91
371	5854	35.011446965	92
371	5897	35.261308565	93
371	5931	35.5116835625	94
371	5964	35.7616835625	95
371	6045	36.01219696	96
371	6078	36.26205856	97
371	6112	36.5124335575	98
371	6145	36.7624335575	99
371	6226	37.012946955	100
371	6259	37.262808555	101
371	6293	37.5131835525	102
371	6326	37.7631835525	103
371	6407	38.01369695	104
371	6440	38.26355855	105
371	6474	38.5139335475	106
371	6507	38.7639335475	107
371	6588	39.014446945	108
371	6621	39.264308545	109
371	6655	39.5146835425	110
371	6688	39.7646835425	111
371	6876	40.01519694	112
371	7027	40.26505854	113
371	7060	40.51505854	114
371	7093	40.76505854	115
371	7218	41.01519694	116
371	7251	41.26505854	117
371	7284	41.51505854	118
371	7317	41.76505854	119
371	7397	42.01519694	120
371	7430	42.26505854	121
371	7463	42.51505854	122
371	7496	42.76505854	123
371	7576	43.01519694	124
371	7609	43.26505854	125
371	7642	43.51505854	126
371	7675	43.76505854	127
371	7755	44.01519694	128
371	7788	44.26505854	129
371	7821	44.51505854	130
371	7854	44.76505854	131
371	8006	45.00019704	132
371	8039	45.25005864	133
371	8072	45.50005864	134
371	8105	45.75005864	135
371	8237	46.00019704	136
371	8270	46.25005864	137
371	8303	46.50005864	138
371	8336	46.75005864	139
371	8414	47.00019704	140
371	8447	47.25005864	141
371	8480	47.50005864	142
371	8513	47.75005864	143
371	8591	48.00019704	144
371	8624	48.25005864	145
371	8657	48.50005864	146
371	8690	48.75005864	147
371	8768	49.00019704	148
371	8801	49.25005864	149
371	8834	49.50005864	150
371	8867	49.75005864	151
371	9001	50.00019704	152
371	9112	50.25005864	153
371	9145	50.50005864	154
371	9178	50.75005864	155
371	9310	51.00019704	156
371	9343	51.25005864	157
371	9376	51.50005864	158
371	9409	51.75005864	159
371	9487	52.00019704	160
371	9520	52.25005864	161
371	9553	52.50005864	162
371	9586	52.75005864	163
371	9664	53.00019704	164
371	9697	53.25005864	165
371	9730	53.50005864	166
371	9763	53.75005864	167
371	9841	54.00019704	168
371	9874	54.25005864	169
371	9907	54.50005864	170
371	9940	54.75005864	171
371	10018	55.00019704	172
371	10051	55.25005864	173
371	10084	55.50005864	174
371	10117	55.75005864	175
371	10195	56.00019704	176
371	10228	56.25005864	177
371	10261	56.50005864	178
371	10294	56.75005864	179
371	10372	57.00019704	180
371	10405	57.25005864	181
371	10438	57.50005864	182
371	10471	57.75005864	183
371	10549	58.00019704	184
371	10582	58.25005864	185
371	10615	58.50005864	186
371	10648	58.75005864	187
371	10726	59.00019704	188
371	10759	59.25005864	189
371	10792	59.50005864	190
371	10825	59.75005864	191
372	0	0	1e-07
372	2845	20	1e-07
372	3067	20.5	0.0003750975
372	3149	21	0.000750095
372	3248	21.5	0.0011250925
372	3330	22	0.00150009
372	3429	22.5	0.0018750875
372	3511	23	0.002250085
372	3610	23.5	0.0026250825
372	3692	24	0.00300008
372	3791	24.5	0.0033750775
372	3873	25	0.003750075
372	3982	25.5	0.0041250725
372	4064	26	0.00450007
372	4163	26.5	0.0048750675
372	4245	27	0.005250065
372	4344	27.5	0.0056250625
372	4426	28	0.00600006
372	4525	28.5	0.0063750575
372	4607	29	0.006750055
372	4706	29.5	0.0071250525
372	4788	30	0.00750005
372	4995	30.5	0.0078750475
372	5077	31	0.008250045
372	5176	31.5	0.0086250425
372	5258	32	0.00900004
372	5357	32.5	0.0093750375
372	5439	33	0.009750035
372	5527	33.5	0.0101250325
372	5609	34	0.01050003
372	5708	34.5	0.0108750275
372	5790	35	0.011250025
372	5899	35.5	0.0116250225
372	5981	36	0.01200002
372	6080	36.5	0.0123750175
372	6162	37	0.012750015
372	6261	37.5	0.0131250125
372	6343	38	0.01350001
372	6442	38.5	0.0138750075
372	6524	39	0.014250005
372	6623	39.5	0.0146250025
372	6707	40	0.015
373	0	0	0
373	2845	20	0
373	3067	20.5	0.00075
373	3149	21	0.0015
373	3248	21.5	0.00225
373	3330	22	0.003
373	3429	22.5	0.00375
373	3511	23	0.0045
373	3610	23.5	0.00525
373	3692	24	0.006
373	3791	24.5	0.00675
373	3873	25	0.0075
373	3982	25.5	0.00825
373	4064	26	0.009
373	4163	26.5	0.00975
373	4245	27	0.0105
373	4344	27.5	0.01125
373	4426	28	0.012
373	4525	28.5	0.01275
373	4607	29	0.0135
373	4706	29.5	0.01425
373	4788	30	0.015
373	4995	30.5	0.01575
373	5077	31	0.0165
373	5176	31.5	0.01725
373	5258	32	0.018
373	5357	32.5	0.01875
373	5439	33	0.0195
373	5527	33.5	0.02025
373	5609	34	0.021
373	5708	34.5	0.02175
373	5790	35	0.0225
373	5899	35.5	0.02325
373	5981	36	0.024
373	6080	36.5	0.02475
373	6162	37	0.0255
373	6261	37.5	0.02625
373	6343	38	0.027
373	6442	38.5	0.02775
373	6524	39	0.0285
373	6623	39.5	0.02925
373	6707	40	0.03

