version 3
run StrongLinear-0-20260330-15:51:32-14768
attr configname StrongLinear
attr datetime 20260330-15:51:32
attr datetimef 20260330-155132
attr experiment StrongLinear
attr inifile omnetpp.ini
attr iterationvars ""
attr iterationvarsd ""
attr iterationvarsf ""
attr measurement ""
attr network dissertationsim.simulations.linkdegradation.LinkDegradation
attr processid 14768
attr repetition 0
attr replication #0
attr resultdir results
attr runnumber 0
attr seedset 0
config image-path ../../../inet4.5/images
config description "Stronger linear delay and PER increase on r2-r3 from 20s to 40s, followed by hard failure at 45s"
config **.degradationController.profile "\"strongLinear\""
config **.degradationController.targetDelay 40ms
config **.degradationController.targetPacketErrorRate 0.08
config network dissertationsim.simulations.linkdegradation.LinkDegradation
config sim-time-limit 60s
config output-scalar-file ../../results/linkdegradation/eval/StrongLinear-0.sca
config output-vector-file ../../results/linkdegradation/eval/StrongLinear-0.vec
config eventlog-file ../../results/linkdegradation/debug/StrongLinear-0.elog
config record-eventlog false
config **.ospf.ospfConfig "xmldoc(\"ASConfig.xml\")"
config **.hostA.numApps 2
config **.hostB.numApps 2
config **.hostA.app[0].typename UdpBasicApp
config **.hostA.app[0].destAddresses "\"hostB\""
config **.hostA.app[0].destPort 5000
config **.hostA.app[0].messageLength 512B
config **.hostA.app[0].sendInterval 1s
config **.hostA.app[0].startTime 10s
config **.hostA.app[1].typename UdpBasicApp
config **.hostA.app[1].destAddresses "\"hostB\""
config **.hostA.app[1].destPort 5001
config **.hostA.app[1].messageLength 128B
config **.hostA.app[1].sendInterval 250ms
config **.hostA.app[1].startTime 12s
config **.hostB.app[0].typename UdpSink
config **.hostB.app[0].localPort 5000
config **.hostB.app[1].typename UdpSink
config **.hostB.app[1].localPort 5001
config **.degradationController.firstInterfaceModule "\"^.r2.eth[1]\""
config **.degradationController.secondInterfaceModule "\"^.r3.eth[0]\""
config **.degradationController.startTime 20s
config **.degradationController.endTime 40s
config **.degradationController.updateInterval 0.5s
config **.degradationController.profile "\"mildLinear\""
config **.degradationController.targetDelay 15ms
config **.degradationController.targetPacketErrorRate 0.03
config **.scenarioManager.script "xml(         \"<script>\\n\" +         \"<at t='45s'><disconnect src-module='r2' src-gate='ethg$o[1]'/></at>\\n\" +         \"<at t='45s'><disconnect src-module='r3' src-gate='ethg$o[0]'/></at>\\n\" +         \"</script>\")"
config **.hostA.app[*].packetSent.result-recording-modes count
config **.hostB.app[*].packetReceived.result-recording-modes count
config **.hostB.app[*].throughput.result-recording-modes vector
config **.ipv4.ip.packetDropNoRouteFound.result-recording-modes count
config **.ipv4.ip.packetDropInterfaceDown.result-recording-modes count

vector 0 LinkDegradation.hostA.ethernet encapPk:vector(packetBytes) ETV
attr interpolationmode none
attr recordingmode vector(packetBytes)
attr source encapPk
attr title "packets encapsulated, packetBytes"
vector 1 LinkDegradation.hostA.ethernet decapPk:vector(packetBytes) ETV
attr interpolationmode none
attr recordingmode vector(packetBytes)
attr source decapPk
attr title "packets decapsulated, packetBytes"
vector 2 LinkDegradation.hostA.ethernet pauseSent:vector ETV
attr recordingmode vector
attr title "pause sent"
vector 3 LinkDegradation.hostA.lo[0].lo rcvdPkFromHl:vector(packetBytes) ETV
attr interpolationmode none
attr recordingmode vector(packetBytes)
attr source packetReceivedFromUpper
attr title "packets received from higher layer, packetBytes"
vector 4 LinkDegradation.hostA.lo[0].lo passedUpPk:vector(packetBytes) ETV
attr interpolationmode none
attr recordingmode vector(packetBytes)
attr source packetSentToUpper
attr title "packets passed to higher layer, packetBytes"
vector 5 LinkDegradation.hostA.lo[0] packetDropInterfaceDown:vector(packetBytes) ETV
attr interpolationmode none
attr recordingmode vector(packetBytes)
attr source packetDropReasonIsInterfaceDown(packetDropped)
attr title "packet drops: interface down, packetBytes"
vector 6 LinkDegradation.hostA.lo[0] packetDropNoCarrier:vector(packetBytes) ETV
attr interpolationmode none
attr recordingmode vector(packetBytes)
attr source packetDropReasonIsNoCarrier(packetDropped)
attr title "packet drops: no carrier, packetBytes"
vector 7 LinkDegradation.hostA.eth[0].queue queueLength:vector ETV
attr autoWarmupFilter false
attr interpolationmode sample-hold
attr recordingmode vector
attr source "warmup(atomic(constant0(packetPushEnded) + count(packetPushStarted) - count(packetPulled) - count(packetRemoved) - count(packetDropped)))"
attr title "queue length"
attr unit pk
vector 8 LinkDegradation.hostA.eth[0].queue queueBitLength:vector ETV
attr autoWarmupFilter false
attr interpolationmode sample-hold
attr recordingmode vector
attr source "warmup(atomic(constant0(packetPushEnded) + sum(packetLength(packetPushStarted)) - sum(packetLength(packetPulled)) - sum(packetLength(packetRemoved)) - sum(packetLength(packetDropped))))"
attr title "queue bit length"
attr unit b
vector 9 LinkDegradation.hostA.eth[0].queue queueingTime:vector ETV
attr interpolationmode none
attr recordingmode vector
attr source queueingTime(packetPulled)
attr title "queueing times"
attr unit s
vector 10 LinkDegradation.hostA.eth[0].queue incomingPacketLengths:vector ETV
attr interpolationmode none
attr recordingmode vector
attr source packetLength(packetPushStarted)
attr title "incoming packet lengths"
attr unit b
vector 11 LinkDegradation.hostA.eth[0].queue incomingDataRate:vector ETV
attr interpolationmode linear
attr recordingmode vector
attr source throughput(packetPushStarted)
attr title "incoming datarate"
attr unit bps
vector 12 LinkDegradation.hostA.eth[0].queue outgoingPacketLengths:vector ETV
attr interpolationmode none
attr recordingmode vector
attr source packetLength(packetPulled)
attr title "outgoing packet lengths"
attr unit b
vector 13 LinkDegradation.hostA.eth[0].queue outgoingDataRate:vector ETV
attr interpolationmode linear
attr recordingmode vector
attr source throughput(packetPulled)
attr title "outgoing datarate"
attr unit bps
vector 14 LinkDegradation.hostA.eth[0].queue droppedPacketLengthsQueueOverflow:vector ETV
attr interpolationmode none
attr recordingmode vector
attr source packetLength(packetDropReasonIsQueueOverflow(packetDropped))
attr title "dropped packet lengths: queue overflow"
attr unit b
vector 15 LinkDegradation.hostA.eth[0].queue flowQueueingTime:vector ETV
attr interpolationmode none
attr recordingmode vector
attr source queueingTime(demuxFlow(packetPulled))
attr title "flow queueing times"
attr unit s
vector 16 LinkDegradation.hostA.eth[0].queue flowIncomingDataRate:vector ETV
attr interpolationmode linear
attr recordingmode vector
attr source throughput(flowPacketLength(demuxFlow(packetPushStarted)))
attr title "flow specific incoming data rate"
attr unit bps
vector 17 LinkDegradation.hostA.eth[0].queue flowOutgoingDataRate:vector ETV
attr interpolationmode linear
attr recordingmode vector
attr source throughput(flowPacketLength(demuxFlow(packetPulled)))
attr title "flow specific outgoing data rate"
attr unit bps
vector 18 LinkDegradation.hostA.eth[0].mac txPk:vector(packetBytes) ETV
attr interpolationmode none
attr recordingmode vector(packetBytes)
attr source packetSentToLower
attr title "packets transmitted, packetBytes"
vector 19 LinkDegradation.hostA.eth[0].mac rxPkOk:vector(packetBytes) ETV
attr interpolationmode none
attr recordingmode vector(packetBytes)
attr source rxPkOk
attr title "packets received OK, packetBytes"
vector 20 LinkDegradation.hostA.eth[0].mac passedUpPk:vector(packetBytes) ETV
attr interpolationmode none
attr recordingmode vector(packetBytes)
attr source packetSentToUpper
attr title "packets passed to higher layer, packetBytes"
vector 21 LinkDegradation.hostA.eth[0].mac txPausePkUnits:vector ETV
attr interpolationmode none
attr recordingmode vector
attr title "pause units sent"
vector 22 LinkDegradation.hostA.eth[0].mac rxPausePkUnits:vector ETV
attr interpolationmode none
attr recordingmode vector
attr title "pause units received"
vector 23 LinkDegradation.hostA.eth[0].mac packetReceivedFromUpper:vector(packetBytes) ETV
attr interpolationmode none
attr recordingmode vector(packetBytes)
attr source packetReceivedFromUpper
attr title "packet bytes from higher layer, packetBytes"
vector 24 LinkDegradation.hostA.eth[0].mac packetDropIncorrectlyReceived:vector(packetBytes) ETV
attr interpolationmode none
attr recordingmode vector(packetBytes)
attr source packetDropReasonIsIncorrectlyReceived(packetDropped)
attr title "packet drop: incorrectly received, packetBytes"
vector 25 LinkDegradation.hostA.eth[0].mac packetDropInterfaceDown:vector(packetBytes) ETV
attr interpolationmode none
attr recordingmode vector(packetBytes)
attr source packetDropReasonIsInterfaceDown(packetDropped)
attr title "packet drop: interface down, packetBytes"
vector 26 LinkDegradation.hostA.eth[0].mac packetDropNotAddressedToUs:vector(packetBytes) ETV
attr interpolationmode none
attr recordingmode vector(packetBytes)
attr source packetDropReasonIsNotAddressedToUs(packetDropped)
attr title "packet drop: not addressed to us, packetBytes"
vector 27 LinkDegradation.hostA.eth[0] packetDropInterfaceDown:vector(packetBytes) ETV
attr interpolationmode none
attr recordingmode vector(packetBytes)
attr source packetDropReasonIsInterfaceDown(packetDropped)
attr title "packet drops: interface down, packetBytes"
vector 28 LinkDegradation.hostA.eth[0] packetDropNoCarrier:vector(packetBytes) ETV
attr interpolationmode none
attr recordingmode vector(packetBytes)
attr source packetDropReasonIsNoCarrier(packetDropped)
attr title "packet drops: no carrier, packetBytes"
vector 29 LinkDegradation.hostA.ipv4.ip packetDropAddressResolutionFailed:vector(packetBytes) ETV
attr interpolationmode none
attr recordingmode vector(packetBytes)
attr source packetDropReasonIsAddressResolutionFailed(packetDropped)
attr title "packet drop: address resolution failed, packetBytes"
vector 30 LinkDegradation.hostA.ipv4.ip packetDropHopLimitReached:vector(packetBytes) ETV
attr interpolationmode none
attr recordingmode vector(packetBytes)
attr source packetDropReasonIsHopLimitReached(packetDropped)
attr title "packet drop: hop limit reached, packetBytes"
vector 31 LinkDegradation.hostA.ipv4.ip packetDropForwardingDisabled:vector(packetBytes) ETV
attr interpolationmode none
attr recordingmode vector(packetBytes)
attr source packetDropReasonIsForwardingDisabled(packetDropped)
attr title "packet drop: forwarding disabled, packetBytes"
vector 32 LinkDegradation.hostA.ipv4.ip packetDropNoInterfaceFound:vector(packetBytes) ETV
attr interpolationmode none
attr recordingmode vector(packetBytes)
attr source packetDropReasonIsNoInterfaceFound(packetDropped)
attr title "packet drop: no interface found, packetBytes"
vector 33 LinkDegradation.hostA.ipv4.ip packetDropUndefined:vector(packetBytes) ETV
attr interpolationmode none
attr recordingmode vector(packetBytes)
attr source packetDropReasonIsUndefined(packetDropped)
attr title "packet drop: undefined, packetBytes"
vector 34 LinkDegradation.hostA.ipv4.arp arpRequestSent:vector(packetBytes) ETV
attr recordingmode vector(packetBytes)
attr source arpRequestSent
attr title "ARP request sent, packetBytes"
vector 35 LinkDegradation.hostA.ipv4.arp arpReplySent:vector(packetBytes) ETV
attr recordingmode vector(packetBytes)
attr source arpReplySent
attr title "ARP replies sent, packetBytes"
vector 36 LinkDegradation.hostA.udp packetSent:vector(packetBytes) ETV
attr interpolationmode none
attr recordingmode vector(packetBytes)
attr source packetSent
attr title "packets sent, packetBytes"
vector 37 LinkDegradation.hostA.udp packetReceived:vector(packetBytes) ETV
attr interpolationmode none
attr recordingmode vector(packetBytes)
attr source packetReceived
attr title "packets received, packetBytes"
vector 38 LinkDegradation.hostA.udp passedUpPk:vector(count) ETV
attr interpolationmode none
attr recordingmode vector(count)
attr source packetSentToUpper
attr title "packets passed up, count"
vector 39 LinkDegradation.hostA.udp droppedPkWrongPort:vector(count) ETV
attr interpolationmode none
attr recordingmode vector(count)
attr source packetDropReasonIsNoPortFound(packetDropped)
attr title "packets dropped (wrong port), count"
vector 40 LinkDegradation.hostA.udp droppedPkBadChecksum:vector(count) ETV
attr interpolationmode none
attr recordingmode vector(count)
attr source packetDropReasonIsIncorrectlyReceived(packetDropped)
attr title "packets dropped (checksum error), count"
vector 41 LinkDegradation.hostA.app[0] packetReceived:vector(packetBytes) ETV
attr interpolationmode none
attr recordingmode vector(packetBytes)
attr source packetReceived
attr title "packets received, packetBytes"
vector 42 LinkDegradation.hostA.app[0] throughput:vector ETV
attr recordingmode vector
attr source throughput(packetReceived)
attr title throughput
attr unit bps
vector 43 LinkDegradation.hostA.app[0] rcvdPkLifetime:vector ETV
attr interpolationmode none
attr recordingmode vector
attr source dataAge(packetReceived)
attr title "received packet lifetime"
attr unit s
vector 44 LinkDegradation.hostA.app[0] rcvdPkSeqNo:vector ETV
attr interpolationmode none
attr recordingmode vector
attr source appPkSeqNo(packetReceived)
attr title "received packet sequence number"
vector 45 LinkDegradation.hostA.app[1] packetReceived:vector(packetBytes) ETV
attr interpolationmode none
attr recordingmode vector(packetBytes)
attr source packetReceived
attr title "packets received, packetBytes"
vector 46 LinkDegradation.hostA.app[1] throughput:vector ETV
attr recordingmode vector
attr source throughput(packetReceived)
attr title throughput
attr unit bps
vector 47 LinkDegradation.hostA.app[1] rcvdPkLifetime:vector ETV
attr interpolationmode none
attr recordingmode vector
attr source dataAge(packetReceived)
attr title "received packet lifetime"
attr unit s
vector 48 LinkDegradation.hostA.app[1] rcvdPkSeqNo:vector ETV
attr interpolationmode none
attr recordingmode vector
attr source appPkSeqNo(packetReceived)
attr title "received packet sequence number"
vector 49 LinkDegradation.r1.ethernet encapPk:vector(packetBytes) ETV
attr interpolationmode none
attr recordingmode vector(packetBytes)
attr source encapPk
attr title "packets encapsulated, packetBytes"
vector 50 LinkDegradation.r1.ethernet decapPk:vector(packetBytes) ETV
attr interpolationmode none
attr recordingmode vector(packetBytes)
attr source decapPk
attr title "packets decapsulated, packetBytes"
vector 51 LinkDegradation.r1.ethernet pauseSent:vector ETV
attr recordingmode vector
attr title "pause sent"
vector 52 LinkDegradation.r1.lo[0].lo rcvdPkFromHl:vector(packetBytes) ETV
attr interpolationmode none
attr recordingmode vector(packetBytes)
attr source packetReceivedFromUpper
attr title "packets received from higher layer, packetBytes"
vector 53 LinkDegradation.r1.lo[0].lo passedUpPk:vector(packetBytes) ETV
attr interpolationmode none
attr recordingmode vector(packetBytes)
attr source packetSentToUpper
attr title "packets passed to higher layer, packetBytes"
vector 54 LinkDegradation.r1.lo[0] packetDropInterfaceDown:vector(packetBytes) ETV
attr interpolationmode none
attr recordingmode vector(packetBytes)
attr source packetDropReasonIsInterfaceDown(packetDropped)
attr title "packet drops: interface down, packetBytes"
vector 55 LinkDegradation.r1.lo[0] packetDropNoCarrier:vector(packetBytes) ETV
attr interpolationmode none
attr recordingmode vector(packetBytes)
attr source packetDropReasonIsNoCarrier(packetDropped)
attr title "packet drops: no carrier, packetBytes"
vector 56 LinkDegradation.r1.eth[0].queue queueLength:vector ETV
attr autoWarmupFilter false
attr interpolationmode sample-hold
attr recordingmode vector
attr source "warmup(atomic(constant0(packetPushEnded) + count(packetPushStarted) - count(packetPulled) - count(packetRemoved) - count(packetDropped)))"
attr title "queue length"
attr unit pk
vector 57 LinkDegradation.r1.eth[0].queue queueBitLength:vector ETV
attr autoWarmupFilter false
attr interpolationmode sample-hold
attr recordingmode vector
attr source "warmup(atomic(constant0(packetPushEnded) + sum(packetLength(packetPushStarted)) - sum(packetLength(packetPulled)) - sum(packetLength(packetRemoved)) - sum(packetLength(packetDropped))))"
attr title "queue bit length"
attr unit b
vector 58 LinkDegradation.r1.eth[0].queue queueingTime:vector ETV
attr interpolationmode none
attr recordingmode vector
attr source queueingTime(packetPulled)
attr title "queueing times"
attr unit s
vector 59 LinkDegradation.r1.eth[0].queue incomingPacketLengths:vector ETV
attr interpolationmode none
attr recordingmode vector
attr source packetLength(packetPushStarted)
attr title "incoming packet lengths"
attr unit b
vector 60 LinkDegradation.r1.eth[0].queue incomingDataRate:vector ETV
attr interpolationmode linear
attr recordingmode vector
attr source throughput(packetPushStarted)
attr title "incoming datarate"
attr unit bps
vector 61 LinkDegradation.r1.eth[0].queue outgoingPacketLengths:vector ETV
attr interpolationmode none
attr recordingmode vector
attr source packetLength(packetPulled)
attr title "outgoing packet lengths"
attr unit b
vector 62 LinkDegradation.r1.eth[0].queue outgoingDataRate:vector ETV
attr interpolationmode linear
attr recordingmode vector
attr source throughput(packetPulled)
attr title "outgoing datarate"
attr unit bps
vector 63 LinkDegradation.r1.eth[0].queue droppedPacketLengthsQueueOverflow:vector ETV
attr interpolationmode none
attr recordingmode vector
attr source packetLength(packetDropReasonIsQueueOverflow(packetDropped))
attr title "dropped packet lengths: queue overflow"
attr unit b
vector 64 LinkDegradation.r1.eth[0].queue flowQueueingTime:vector ETV
attr interpolationmode none
attr recordingmode vector
attr source queueingTime(demuxFlow(packetPulled))
attr title "flow queueing times"
attr unit s
vector 65 LinkDegradation.r1.eth[0].queue flowIncomingDataRate:vector ETV
attr interpolationmode linear
attr recordingmode vector
attr source throughput(flowPacketLength(demuxFlow(packetPushStarted)))
attr title "flow specific incoming data rate"
attr unit bps
vector 66 LinkDegradation.r1.eth[0].queue flowOutgoingDataRate:vector ETV
attr interpolationmode linear
attr recordingmode vector
attr source throughput(flowPacketLength(demuxFlow(packetPulled)))
attr title "flow specific outgoing data rate"
attr unit bps
vector 67 LinkDegradation.r1.eth[0].mac txPk:vector(packetBytes) ETV
attr interpolationmode none
attr recordingmode vector(packetBytes)
attr source packetSentToLower
attr title "packets transmitted, packetBytes"
vector 68 LinkDegradation.r1.eth[0].mac rxPkOk:vector(packetBytes) ETV
attr interpolationmode none
attr recordingmode vector(packetBytes)
attr source rxPkOk
attr title "packets received OK, packetBytes"
vector 69 LinkDegradation.r1.eth[0].mac passedUpPk:vector(packetBytes) ETV
attr interpolationmode none
attr recordingmode vector(packetBytes)
attr source packetSentToUpper
attr title "packets passed to higher layer, packetBytes"
vector 70 LinkDegradation.r1.eth[0].mac txPausePkUnits:vector ETV
attr interpolationmode none
attr recordingmode vector
attr title "pause units sent"
vector 71 LinkDegradation.r1.eth[0].mac rxPausePkUnits:vector ETV
attr interpolationmode none
attr recordingmode vector
attr title "pause units received"
vector 72 LinkDegradation.r1.eth[0].mac packetReceivedFromUpper:vector(packetBytes) ETV
attr interpolationmode none
attr recordingmode vector(packetBytes)
attr source packetReceivedFromUpper
attr title "packet bytes from higher layer, packetBytes"
vector 73 LinkDegradation.r1.eth[0].mac packetDropIncorrectlyReceived:vector(packetBytes) ETV
attr interpolationmode none
attr recordingmode vector(packetBytes)
attr source packetDropReasonIsIncorrectlyReceived(packetDropped)
attr title "packet drop: incorrectly received, packetBytes"
vector 74 LinkDegradation.r1.eth[0].mac packetDropInterfaceDown:vector(packetBytes) ETV
attr interpolationmode none
attr recordingmode vector(packetBytes)
attr source packetDropReasonIsInterfaceDown(packetDropped)
attr title "packet drop: interface down, packetBytes"
vector 75 LinkDegradation.r1.eth[0].mac packetDropNotAddressedToUs:vector(packetBytes) ETV
attr interpolationmode none
attr recordingmode vector(packetBytes)
attr source packetDropReasonIsNotAddressedToUs(packetDropped)
attr title "packet drop: not addressed to us, packetBytes"
vector 76 LinkDegradation.r1.eth[0] packetDropInterfaceDown:vector(packetBytes) ETV
attr interpolationmode none
attr recordingmode vector(packetBytes)
attr source packetDropReasonIsInterfaceDown(packetDropped)
attr title "packet drops: interface down, packetBytes"
vector 77 LinkDegradation.r1.eth[0] packetDropNoCarrier:vector(packetBytes) ETV
attr interpolationmode none
attr recordingmode vector(packetBytes)
attr source packetDropReasonIsNoCarrier(packetDropped)
attr title "packet drops: no carrier, packetBytes"
vector 78 LinkDegradation.r1.eth[1].queue queueLength:vector ETV
attr autoWarmupFilter false
attr interpolationmode sample-hold
attr recordingmode vector
attr source "warmup(atomic(constant0(packetPushEnded) + count(packetPushStarted) - count(packetPulled) - count(packetRemoved) - count(packetDropped)))"
attr title "queue length"
attr unit pk
vector 79 LinkDegradation.r1.eth[1].queue queueBitLength:vector ETV
attr autoWarmupFilter false
attr interpolationmode sample-hold
attr recordingmode vector
attr source "warmup(atomic(constant0(packetPushEnded) + sum(packetLength(packetPushStarted)) - sum(packetLength(packetPulled)) - sum(packetLength(packetRemoved)) - sum(packetLength(packetDropped))))"
attr title "queue bit length"
attr unit b
vector 80 LinkDegradation.r1.eth[1].queue queueingTime:vector ETV
attr interpolationmode none
attr recordingmode vector
attr source queueingTime(packetPulled)
attr title "queueing times"
attr unit s
vector 81 LinkDegradation.r1.eth[1].queue incomingPacketLengths:vector ETV
attr interpolationmode none
attr recordingmode vector
attr source packetLength(packetPushStarted)
attr title "incoming packet lengths"
attr unit b
vector 82 LinkDegradation.r1.eth[1].queue incomingDataRate:vector ETV
attr interpolationmode linear
attr recordingmode vector
attr source throughput(packetPushStarted)
attr title "incoming datarate"
attr unit bps
vector 83 LinkDegradation.r1.eth[1].queue outgoingPacketLengths:vector ETV
attr interpolationmode none
attr recordingmode vector
attr source packetLength(packetPulled)
attr title "outgoing packet lengths"
attr unit b
vector 84 LinkDegradation.r1.eth[1].queue outgoingDataRate:vector ETV
attr interpolationmode linear
attr recordingmode vector
attr source throughput(packetPulled)
attr title "outgoing datarate"
attr unit bps
vector 85 LinkDegradation.r1.eth[1].queue droppedPacketLengthsQueueOverflow:vector ETV
attr interpolationmode none
attr recordingmode vector
attr source packetLength(packetDropReasonIsQueueOverflow(packetDropped))
attr title "dropped packet lengths: queue overflow"
attr unit b
vector 86 LinkDegradation.r1.eth[1].queue flowQueueingTime:vector ETV
attr interpolationmode none
attr recordingmode vector
attr source queueingTime(demuxFlow(packetPulled))
attr title "flow queueing times"
attr unit s
vector 87 LinkDegradation.r1.eth[1].queue flowIncomingDataRate:vector ETV
attr interpolationmode linear
attr recordingmode vector
attr source throughput(flowPacketLength(demuxFlow(packetPushStarted)))
attr title "flow specific incoming data rate"
attr unit bps
vector 88 LinkDegradation.r1.eth[1].queue flowOutgoingDataRate:vector ETV
attr interpolationmode linear
attr recordingmode vector
attr source throughput(flowPacketLength(demuxFlow(packetPulled)))
attr title "flow specific outgoing data rate"
attr unit bps
vector 89 LinkDegradation.r1.eth[1].mac txPk:vector(packetBytes) ETV
attr interpolationmode none
attr recordingmode vector(packetBytes)
attr source packetSentToLower
attr title "packets transmitted, packetBytes"
vector 90 LinkDegradation.r1.eth[1].mac rxPkOk:vector(packetBytes) ETV
attr interpolationmode none
attr recordingmode vector(packetBytes)
attr source rxPkOk
attr title "packets received OK, packetBytes"
vector 91 LinkDegradation.r1.eth[1].mac passedUpPk:vector(packetBytes) ETV
attr interpolationmode none
attr recordingmode vector(packetBytes)
attr source packetSentToUpper
attr title "packets passed to higher layer, packetBytes"
vector 92 LinkDegradation.r1.eth[1].mac txPausePkUnits:vector ETV
attr interpolationmode none
attr recordingmode vector
attr title "pause units sent"
vector 93 LinkDegradation.r1.eth[1].mac rxPausePkUnits:vector ETV
attr interpolationmode none
attr recordingmode vector
attr title "pause units received"
vector 94 LinkDegradation.r1.eth[1].mac packetReceivedFromUpper:vector(packetBytes) ETV
attr interpolationmode none
attr recordingmode vector(packetBytes)
attr source packetReceivedFromUpper
attr title "packet bytes from higher layer, packetBytes"
vector 95 LinkDegradation.r1.eth[1].mac packetDropIncorrectlyReceived:vector(packetBytes) ETV
attr interpolationmode none
attr recordingmode vector(packetBytes)
attr source packetDropReasonIsIncorrectlyReceived(packetDropped)
attr title "packet drop: incorrectly received, packetBytes"
vector 96 LinkDegradation.r1.eth[1].mac packetDropInterfaceDown:vector(packetBytes) ETV
attr interpolationmode none
attr recordingmode vector(packetBytes)
attr source packetDropReasonIsInterfaceDown(packetDropped)
attr title "packet drop: interface down, packetBytes"
vector 97 LinkDegradation.r1.eth[1].mac packetDropNotAddressedToUs:vector(packetBytes) ETV
attr interpolationmode none
attr recordingmode vector(packetBytes)
attr source packetDropReasonIsNotAddressedToUs(packetDropped)
attr title "packet drop: not addressed to us, packetBytes"
vector 98 LinkDegradation.r1.eth[1] packetDropInterfaceDown:vector(packetBytes) ETV
attr interpolationmode none
attr recordingmode vector(packetBytes)
attr source packetDropReasonIsInterfaceDown(packetDropped)
attr title "packet drops: interface down, packetBytes"
vector 99 LinkDegradation.r1.eth[1] packetDropNoCarrier:vector(packetBytes) ETV
attr interpolationmode none
attr recordingmode vector(packetBytes)
attr source packetDropReasonIsNoCarrier(packetDropped)
attr title "packet drops: no carrier, packetBytes"
vector 100 LinkDegradation.r1.eth[2].queue queueLength:vector ETV
attr autoWarmupFilter false
attr interpolationmode sample-hold
attr recordingmode vector
attr source "warmup(atomic(constant0(packetPushEnded) + count(packetPushStarted) - count(packetPulled) - count(packetRemoved) - count(packetDropped)))"
attr title "queue length"
attr unit pk
vector 101 LinkDegradation.r1.eth[2].queue queueBitLength:vector ETV
attr autoWarmupFilter false
attr interpolationmode sample-hold
attr recordingmode vector
attr source "warmup(atomic(constant0(packetPushEnded) + sum(packetLength(packetPushStarted)) - sum(packetLength(packetPulled)) - sum(packetLength(packetRemoved)) - sum(packetLength(packetDropped))))"
attr title "queue bit length"
attr unit b
vector 102 LinkDegradation.r1.eth[2].queue queueingTime:vector ETV
attr interpolationmode none
attr recordingmode vector
attr source queueingTime(packetPulled)
attr title "queueing times"
attr unit s
vector 103 LinkDegradation.r1.eth[2].queue incomingPacketLengths:vector ETV
attr interpolationmode none
attr recordingmode vector
attr source packetLength(packetPushStarted)
attr title "incoming packet lengths"
attr unit b
vector 104 LinkDegradation.r1.eth[2].queue incomingDataRate:vector ETV
attr interpolationmode linear
attr recordingmode vector
attr source throughput(packetPushStarted)
attr title "incoming datarate"
attr unit bps
vector 105 LinkDegradation.r1.eth[2].queue outgoingPacketLengths:vector ETV
attr interpolationmode none
attr recordingmode vector
attr source packetLength(packetPulled)
attr title "outgoing packet lengths"
attr unit b
vector 106 LinkDegradation.r1.eth[2].queue outgoingDataRate:vector ETV
attr interpolationmode linear
attr recordingmode vector
attr source throughput(packetPulled)
attr title "outgoing datarate"
attr unit bps
vector 107 LinkDegradation.r1.eth[2].queue droppedPacketLengthsQueueOverflow:vector ETV
attr interpolationmode none
attr recordingmode vector
attr source packetLength(packetDropReasonIsQueueOverflow(packetDropped))
attr title "dropped packet lengths: queue overflow"
attr unit b
vector 108 LinkDegradation.r1.eth[2].queue flowQueueingTime:vector ETV
attr interpolationmode none
attr recordingmode vector
attr source queueingTime(demuxFlow(packetPulled))
attr title "flow queueing times"
attr unit s
vector 109 LinkDegradation.r1.eth[2].queue flowIncomingDataRate:vector ETV
attr interpolationmode linear
attr recordingmode vector
attr source throughput(flowPacketLength(demuxFlow(packetPushStarted)))
attr title "flow specific incoming data rate"
attr unit bps
vector 110 LinkDegradation.r1.eth[2].queue flowOutgoingDataRate:vector ETV
attr interpolationmode linear
attr recordingmode vector
attr source throughput(flowPacketLength(demuxFlow(packetPulled)))
attr title "flow specific outgoing data rate"
attr unit bps
vector 111 LinkDegradation.r1.eth[2].mac txPk:vector(packetBytes) ETV
attr interpolationmode none
attr recordingmode vector(packetBytes)
attr source packetSentToLower
attr title "packets transmitted, packetBytes"
vector 112 LinkDegradation.r1.eth[2].mac rxPkOk:vector(packetBytes) ETV
attr interpolationmode none
attr recordingmode vector(packetBytes)
attr source rxPkOk
attr title "packets received OK, packetBytes"
vector 113 LinkDegradation.r1.eth[2].mac passedUpPk:vector(packetBytes) ETV
attr interpolationmode none
attr recordingmode vector(packetBytes)
attr source packetSentToUpper
attr title "packets passed to higher layer, packetBytes"
vector 114 LinkDegradation.r1.eth[2].mac txPausePkUnits:vector ETV
attr interpolationmode none
attr recordingmode vector
attr title "pause units sent"
vector 115 LinkDegradation.r1.eth[2].mac rxPausePkUnits:vector ETV
attr interpolationmode none
attr recordingmode vector
attr title "pause units received"
vector 116 LinkDegradation.r1.eth[2].mac packetReceivedFromUpper:vector(packetBytes) ETV
attr interpolationmode none
attr recordingmode vector(packetBytes)
attr source packetReceivedFromUpper
attr title "packet bytes from higher layer, packetBytes"
vector 117 LinkDegradation.r1.eth[2].mac packetDropIncorrectlyReceived:vector(packetBytes) ETV
attr interpolationmode none
attr recordingmode vector(packetBytes)
attr source packetDropReasonIsIncorrectlyReceived(packetDropped)
attr title "packet drop: incorrectly received, packetBytes"
vector 118 LinkDegradation.r1.eth[2].mac packetDropInterfaceDown:vector(packetBytes) ETV
attr interpolationmode none
attr recordingmode vector(packetBytes)
attr source packetDropReasonIsInterfaceDown(packetDropped)
attr title "packet drop: interface down, packetBytes"
vector 119 LinkDegradation.r1.eth[2].mac packetDropNotAddressedToUs:vector(packetBytes) ETV
attr interpolationmode none
attr recordingmode vector(packetBytes)
attr source packetDropReasonIsNotAddressedToUs(packetDropped)
attr title "packet drop: not addressed to us, packetBytes"
vector 120 LinkDegradation.r1.eth[2] packetDropInterfaceDown:vector(packetBytes) ETV
attr interpolationmode none
attr recordingmode vector(packetBytes)
attr source packetDropReasonIsInterfaceDown(packetDropped)
attr title "packet drops: interface down, packetBytes"
vector 121 LinkDegradation.r1.eth[2] packetDropNoCarrier:vector(packetBytes) ETV
attr interpolationmode none
attr recordingmode vector(packetBytes)
attr source packetDropReasonIsNoCarrier(packetDropped)
attr title "packet drops: no carrier, packetBytes"
vector 122 LinkDegradation.r1.ipv4.ip packetDropAddressResolutionFailed:vector(packetBytes) ETV
attr interpolationmode none
attr recordingmode vector(packetBytes)
attr source packetDropReasonIsAddressResolutionFailed(packetDropped)
attr title "packet drop: address resolution failed, packetBytes"
vector 123 LinkDegradation.r1.ipv4.ip packetDropHopLimitReached:vector(packetBytes) ETV
attr interpolationmode none
attr recordingmode vector(packetBytes)
attr source packetDropReasonIsHopLimitReached(packetDropped)
attr title "packet drop: hop limit reached, packetBytes"
vector 124 LinkDegradation.r1.ipv4.ip packetDropForwardingDisabled:vector(packetBytes) ETV
attr interpolationmode none
attr recordingmode vector(packetBytes)
attr source packetDropReasonIsForwardingDisabled(packetDropped)
attr title "packet drop: forwarding disabled, packetBytes"
vector 125 LinkDegradation.r1.ipv4.ip packetDropNoInterfaceFound:vector(packetBytes) ETV
attr interpolationmode none
attr recordingmode vector(packetBytes)
attr source packetDropReasonIsNoInterfaceFound(packetDropped)
attr title "packet drop: no interface found, packetBytes"
vector 126 LinkDegradation.r1.ipv4.ip packetDropUndefined:vector(packetBytes) ETV
attr interpolationmode none
attr recordingmode vector(packetBytes)
attr source packetDropReasonIsUndefined(packetDropped)
attr title "packet drop: undefined, packetBytes"
vector 127 LinkDegradation.r1.ipv4.arp arpRequestSent:vector(packetBytes) ETV
attr recordingmode vector(packetBytes)
attr source arpRequestSent
attr title "ARP request sent, packetBytes"
vector 128 LinkDegradation.r1.ipv4.arp arpReplySent:vector(packetBytes) ETV
attr recordingmode vector(packetBytes)
attr source arpReplySent
attr title "ARP replies sent, packetBytes"
vector 129 LinkDegradation.r2.ethernet encapPk:vector(packetBytes) ETV
attr interpolationmode none
attr recordingmode vector(packetBytes)
attr source encapPk
attr title "packets encapsulated, packetBytes"
vector 130 LinkDegradation.r2.ethernet decapPk:vector(packetBytes) ETV
attr interpolationmode none
attr recordingmode vector(packetBytes)
attr source decapPk
attr title "packets decapsulated, packetBytes"
vector 131 LinkDegradation.r2.ethernet pauseSent:vector ETV
attr recordingmode vector
attr title "pause sent"
vector 132 LinkDegradation.r2.lo[0].lo rcvdPkFromHl:vector(packetBytes) ETV
attr interpolationmode none
attr recordingmode vector(packetBytes)
attr source packetReceivedFromUpper
attr title "packets received from higher layer, packetBytes"
vector 133 LinkDegradation.r2.lo[0].lo passedUpPk:vector(packetBytes) ETV
attr interpolationmode none
attr recordingmode vector(packetBytes)
attr source packetSentToUpper
attr title "packets passed to higher layer, packetBytes"
vector 134 LinkDegradation.r2.lo[0] packetDropInterfaceDown:vector(packetBytes) ETV
attr interpolationmode none
attr recordingmode vector(packetBytes)
attr source packetDropReasonIsInterfaceDown(packetDropped)
attr title "packet drops: interface down, packetBytes"
vector 135 LinkDegradation.r2.lo[0] packetDropNoCarrier:vector(packetBytes) ETV
attr interpolationmode none
attr recordingmode vector(packetBytes)
attr source packetDropReasonIsNoCarrier(packetDropped)
attr title "packet drops: no carrier, packetBytes"
vector 136 LinkDegradation.r2.eth[0].queue queueLength:vector ETV
attr autoWarmupFilter false
attr interpolationmode sample-hold
attr recordingmode vector
attr source "warmup(atomic(constant0(packetPushEnded) + count(packetPushStarted) - count(packetPulled) - count(packetRemoved) - count(packetDropped)))"
attr title "queue length"
attr unit pk
vector 137 LinkDegradation.r2.eth[0].queue queueBitLength:vector ETV
attr autoWarmupFilter false
attr interpolationmode sample-hold
attr recordingmode vector
attr source "warmup(atomic(constant0(packetPushEnded) + sum(packetLength(packetPushStarted)) - sum(packetLength(packetPulled)) - sum(packetLength(packetRemoved)) - sum(packetLength(packetDropped))))"
attr title "queue bit length"
attr unit b
vector 138 LinkDegradation.r2.eth[0].queue queueingTime:vector ETV
attr interpolationmode none
attr recordingmode vector
attr source queueingTime(packetPulled)
attr title "queueing times"
attr unit s
vector 139 LinkDegradation.r2.eth[0].queue incomingPacketLengths:vector ETV
attr interpolationmode none
attr recordingmode vector
attr source packetLength(packetPushStarted)
attr title "incoming packet lengths"
attr unit b
vector 140 LinkDegradation.r2.eth[0].queue incomingDataRate:vector ETV
attr interpolationmode linear
attr recordingmode vector
attr source throughput(packetPushStarted)
attr title "incoming datarate"
attr unit bps
vector 141 LinkDegradation.r2.eth[0].queue outgoingPacketLengths:vector ETV
attr interpolationmode none
attr recordingmode vector
attr source packetLength(packetPulled)
attr title "outgoing packet lengths"
attr unit b
vector 142 LinkDegradation.r2.eth[0].queue outgoingDataRate:vector ETV
attr interpolationmode linear
attr recordingmode vector
attr source throughput(packetPulled)
attr title "outgoing datarate"
attr unit bps
vector 143 LinkDegradation.r2.eth[0].queue droppedPacketLengthsQueueOverflow:vector ETV
attr interpolationmode none
attr recordingmode vector
attr source packetLength(packetDropReasonIsQueueOverflow(packetDropped))
attr title "dropped packet lengths: queue overflow"
attr unit b
vector 144 LinkDegradation.r2.eth[0].queue flowQueueingTime:vector ETV
attr interpolationmode none
attr recordingmode vector
attr source queueingTime(demuxFlow(packetPulled))
attr title "flow queueing times"
attr unit s
vector 145 LinkDegradation.r2.eth[0].queue flowIncomingDataRate:vector ETV
attr interpolationmode linear
attr recordingmode vector
attr source throughput(flowPacketLength(demuxFlow(packetPushStarted)))
attr title "flow specific incoming data rate"
attr unit bps
vector 146 LinkDegradation.r2.eth[0].queue flowOutgoingDataRate:vector ETV
attr interpolationmode linear
attr recordingmode vector
attr source throughput(flowPacketLength(demuxFlow(packetPulled)))
attr title "flow specific outgoing data rate"
attr unit bps
vector 147 LinkDegradation.r2.eth[0].mac txPk:vector(packetBytes) ETV
attr interpolationmode none
attr recordingmode vector(packetBytes)
attr source packetSentToLower
attr title "packets transmitted, packetBytes"
vector 148 LinkDegradation.r2.eth[0].mac rxPkOk:vector(packetBytes) ETV
attr interpolationmode none
attr recordingmode vector(packetBytes)
attr source rxPkOk
attr title "packets received OK, packetBytes"
vector 149 LinkDegradation.r2.eth[0].mac passedUpPk:vector(packetBytes) ETV
attr interpolationmode none
attr recordingmode vector(packetBytes)
attr source packetSentToUpper
attr title "packets passed to higher layer, packetBytes"
vector 150 LinkDegradation.r2.eth[0].mac txPausePkUnits:vector ETV
attr interpolationmode none
attr recordingmode vector
attr title "pause units sent"
vector 151 LinkDegradation.r2.eth[0].mac rxPausePkUnits:vector ETV
attr interpolationmode none
attr recordingmode vector
attr title "pause units received"
vector 152 LinkDegradation.r2.eth[0].mac packetReceivedFromUpper:vector(packetBytes) ETV
attr interpolationmode none
attr recordingmode vector(packetBytes)
attr source packetReceivedFromUpper
attr title "packet bytes from higher layer, packetBytes"
vector 153 LinkDegradation.r2.eth[0].mac packetDropIncorrectlyReceived:vector(packetBytes) ETV
attr interpolationmode none
attr recordingmode vector(packetBytes)
attr source packetDropReasonIsIncorrectlyReceived(packetDropped)
attr title "packet drop: incorrectly received, packetBytes"
vector 154 LinkDegradation.r2.eth[0].mac packetDropInterfaceDown:vector(packetBytes) ETV
attr interpolationmode none
attr recordingmode vector(packetBytes)
attr source packetDropReasonIsInterfaceDown(packetDropped)
attr title "packet drop: interface down, packetBytes"
vector 155 LinkDegradation.r2.eth[0].mac packetDropNotAddressedToUs:vector(packetBytes) ETV
attr interpolationmode none
attr recordingmode vector(packetBytes)
attr source packetDropReasonIsNotAddressedToUs(packetDropped)
attr title "packet drop: not addressed to us, packetBytes"
vector 156 LinkDegradation.r2.eth[0] packetDropInterfaceDown:vector(packetBytes) ETV
attr interpolationmode none
attr recordingmode vector(packetBytes)
attr source packetDropReasonIsInterfaceDown(packetDropped)
attr title "packet drops: interface down, packetBytes"
vector 157 LinkDegradation.r2.eth[0] packetDropNoCarrier:vector(packetBytes) ETV
attr interpolationmode none
attr recordingmode vector(packetBytes)
attr source packetDropReasonIsNoCarrier(packetDropped)
attr title "packet drops: no carrier, packetBytes"
vector 158 LinkDegradation.r2.eth[1].queue queueLength:vector ETV
attr autoWarmupFilter false
attr interpolationmode sample-hold
attr recordingmode vector
attr source "warmup(atomic(constant0(packetPushEnded) + count(packetPushStarted) - count(packetPulled) - count(packetRemoved) - count(packetDropped)))"
attr title "queue length"
attr unit pk
vector 159 LinkDegradation.r2.eth[1].queue queueBitLength:vector ETV
attr autoWarmupFilter false
attr interpolationmode sample-hold
attr recordingmode vector
attr source "warmup(atomic(constant0(packetPushEnded) + sum(packetLength(packetPushStarted)) - sum(packetLength(packetPulled)) - sum(packetLength(packetRemoved)) - sum(packetLength(packetDropped))))"
attr title "queue bit length"
attr unit b
vector 160 LinkDegradation.r2.eth[1].queue queueingTime:vector ETV
attr interpolationmode none
attr recordingmode vector
attr source queueingTime(packetPulled)
attr title "queueing times"
attr unit s
vector 161 LinkDegradation.r2.eth[1].queue incomingPacketLengths:vector ETV
attr interpolationmode none
attr recordingmode vector
attr source packetLength(packetPushStarted)
attr title "incoming packet lengths"
attr unit b
vector 162 LinkDegradation.r2.eth[1].queue incomingDataRate:vector ETV
attr interpolationmode linear
attr recordingmode vector
attr source throughput(packetPushStarted)
attr title "incoming datarate"
attr unit bps
vector 163 LinkDegradation.r2.eth[1].queue outgoingPacketLengths:vector ETV
attr interpolationmode none
attr recordingmode vector
attr source packetLength(packetPulled)
attr title "outgoing packet lengths"
attr unit b
vector 164 LinkDegradation.r2.eth[1].queue outgoingDataRate:vector ETV
attr interpolationmode linear
attr recordingmode vector
attr source throughput(packetPulled)
attr title "outgoing datarate"
attr unit bps
vector 165 LinkDegradation.r2.eth[1].queue droppedPacketLengthsQueueOverflow:vector ETV
attr interpolationmode none
attr recordingmode vector
attr source packetLength(packetDropReasonIsQueueOverflow(packetDropped))
attr title "dropped packet lengths: queue overflow"
attr unit b
vector 166 LinkDegradation.r2.eth[1].queue flowQueueingTime:vector ETV
attr interpolationmode none
attr recordingmode vector
attr source queueingTime(demuxFlow(packetPulled))
attr title "flow queueing times"
attr unit s
vector 167 LinkDegradation.r2.eth[1].queue flowIncomingDataRate:vector ETV
attr interpolationmode linear
attr recordingmode vector
attr source throughput(flowPacketLength(demuxFlow(packetPushStarted)))
attr title "flow specific incoming data rate"
attr unit bps
vector 168 LinkDegradation.r2.eth[1].queue flowOutgoingDataRate:vector ETV
attr interpolationmode linear
attr recordingmode vector
attr source throughput(flowPacketLength(demuxFlow(packetPulled)))
attr title "flow specific outgoing data rate"
attr unit bps
vector 169 LinkDegradation.r2.eth[1].mac txPk:vector(packetBytes) ETV
attr interpolationmode none
attr recordingmode vector(packetBytes)
attr source packetSentToLower
attr title "packets transmitted, packetBytes"
vector 170 LinkDegradation.r2.eth[1].mac rxPkOk:vector(packetBytes) ETV
attr interpolationmode none
attr recordingmode vector(packetBytes)
attr source rxPkOk
attr title "packets received OK, packetBytes"
vector 171 LinkDegradation.r2.eth[1].mac passedUpPk:vector(packetBytes) ETV
attr interpolationmode none
attr recordingmode vector(packetBytes)
attr source packetSentToUpper
attr title "packets passed to higher layer, packetBytes"
vector 172 LinkDegradation.r2.eth[1].mac txPausePkUnits:vector ETV
attr interpolationmode none
attr recordingmode vector
attr title "pause units sent"
vector 173 LinkDegradation.r2.eth[1].mac rxPausePkUnits:vector ETV
attr interpolationmode none
attr recordingmode vector
attr title "pause units received"
vector 174 LinkDegradation.r2.eth[1].mac packetReceivedFromUpper:vector(packetBytes) ETV
attr interpolationmode none
attr recordingmode vector(packetBytes)
attr source packetReceivedFromUpper
attr title "packet bytes from higher layer, packetBytes"
vector 175 LinkDegradation.r2.eth[1].mac packetDropIncorrectlyReceived:vector(packetBytes) ETV
attr interpolationmode none
attr recordingmode vector(packetBytes)
attr source packetDropReasonIsIncorrectlyReceived(packetDropped)
attr title "packet drop: incorrectly received, packetBytes"
vector 176 LinkDegradation.r2.eth[1].mac packetDropInterfaceDown:vector(packetBytes) ETV
attr interpolationmode none
attr recordingmode vector(packetBytes)
attr source packetDropReasonIsInterfaceDown(packetDropped)
attr title "packet drop: interface down, packetBytes"
vector 177 LinkDegradation.r2.eth[1].mac packetDropNotAddressedToUs:vector(packetBytes) ETV
attr interpolationmode none
attr recordingmode vector(packetBytes)
attr source packetDropReasonIsNotAddressedToUs(packetDropped)
attr title "packet drop: not addressed to us, packetBytes"
vector 178 LinkDegradation.r2.eth[1] packetDropInterfaceDown:vector(packetBytes) ETV
attr interpolationmode none
attr recordingmode vector(packetBytes)
attr source packetDropReasonIsInterfaceDown(packetDropped)
attr title "packet drops: interface down, packetBytes"
vector 179 LinkDegradation.r2.eth[1] packetDropNoCarrier:vector(packetBytes) ETV
attr interpolationmode none
attr recordingmode vector(packetBytes)
attr source packetDropReasonIsNoCarrier(packetDropped)
attr title "packet drops: no carrier, packetBytes"
vector 180 LinkDegradation.r2.ipv4.ip packetDropAddressResolutionFailed:vector(packetBytes) ETV
attr interpolationmode none
attr recordingmode vector(packetBytes)
attr source packetDropReasonIsAddressResolutionFailed(packetDropped)
attr title "packet drop: address resolution failed, packetBytes"
vector 181 LinkDegradation.r2.ipv4.ip packetDropHopLimitReached:vector(packetBytes) ETV
attr interpolationmode none
attr recordingmode vector(packetBytes)
attr source packetDropReasonIsHopLimitReached(packetDropped)
attr title "packet drop: hop limit reached, packetBytes"
vector 182 LinkDegradation.r2.ipv4.ip packetDropForwardingDisabled:vector(packetBytes) ETV
attr interpolationmode none
attr recordingmode vector(packetBytes)
attr source packetDropReasonIsForwardingDisabled(packetDropped)
attr title "packet drop: forwarding disabled, packetBytes"
vector 183 LinkDegradation.r2.ipv4.ip packetDropNoInterfaceFound:vector(packetBytes) ETV
attr interpolationmode none
attr recordingmode vector(packetBytes)
attr source packetDropReasonIsNoInterfaceFound(packetDropped)
attr title "packet drop: no interface found, packetBytes"
vector 184 LinkDegradation.r2.ipv4.ip packetDropUndefined:vector(packetBytes) ETV
attr interpolationmode none
attr recordingmode vector(packetBytes)
attr source packetDropReasonIsUndefined(packetDropped)
attr title "packet drop: undefined, packetBytes"
vector 185 LinkDegradation.r2.ipv4.arp arpRequestSent:vector(packetBytes) ETV
attr recordingmode vector(packetBytes)
attr source arpRequestSent
attr title "ARP request sent, packetBytes"
vector 186 LinkDegradation.r2.ipv4.arp arpReplySent:vector(packetBytes) ETV
attr recordingmode vector(packetBytes)
attr source arpReplySent
attr title "ARP replies sent, packetBytes"
vector 187 LinkDegradation.r4.ethernet encapPk:vector(packetBytes) ETV
attr interpolationmode none
attr recordingmode vector(packetBytes)
attr source encapPk
attr title "packets encapsulated, packetBytes"
vector 188 LinkDegradation.r4.ethernet decapPk:vector(packetBytes) ETV
attr interpolationmode none
attr recordingmode vector(packetBytes)
attr source decapPk
attr title "packets decapsulated, packetBytes"
vector 189 LinkDegradation.r4.ethernet pauseSent:vector ETV
attr recordingmode vector
attr title "pause sent"
vector 190 LinkDegradation.r4.lo[0].lo rcvdPkFromHl:vector(packetBytes) ETV
attr interpolationmode none
attr recordingmode vector(packetBytes)
attr source packetReceivedFromUpper
attr title "packets received from higher layer, packetBytes"
vector 191 LinkDegradation.r4.lo[0].lo passedUpPk:vector(packetBytes) ETV
attr interpolationmode none
attr recordingmode vector(packetBytes)
attr source packetSentToUpper
attr title "packets passed to higher layer, packetBytes"
vector 192 LinkDegradation.r4.lo[0] packetDropInterfaceDown:vector(packetBytes) ETV
attr interpolationmode none
attr recordingmode vector(packetBytes)
attr source packetDropReasonIsInterfaceDown(packetDropped)
attr title "packet drops: interface down, packetBytes"
vector 193 LinkDegradation.r4.lo[0] packetDropNoCarrier:vector(packetBytes) ETV
attr interpolationmode none
attr recordingmode vector(packetBytes)
attr source packetDropReasonIsNoCarrier(packetDropped)
attr title "packet drops: no carrier, packetBytes"
vector 194 LinkDegradation.r4.eth[0].queue queueLength:vector ETV
attr autoWarmupFilter false
attr interpolationmode sample-hold
attr recordingmode vector
attr source "warmup(atomic(constant0(packetPushEnded) + count(packetPushStarted) - count(packetPulled) - count(packetRemoved) - count(packetDropped)))"
attr title "queue length"
attr unit pk
vector 195 LinkDegradation.r4.eth[0].queue queueBitLength:vector ETV
attr autoWarmupFilter false
attr interpolationmode sample-hold
attr recordingmode vector
attr source "warmup(atomic(constant0(packetPushEnded) + sum(packetLength(packetPushStarted)) - sum(packetLength(packetPulled)) - sum(packetLength(packetRemoved)) - sum(packetLength(packetDropped))))"
attr title "queue bit length"
attr unit b
vector 196 LinkDegradation.r4.eth[0].queue queueingTime:vector ETV
attr interpolationmode none
attr recordingmode vector
attr source queueingTime(packetPulled)
attr title "queueing times"
attr unit s
vector 197 LinkDegradation.r4.eth[0].queue incomingPacketLengths:vector ETV
attr interpolationmode none
attr recordingmode vector
attr source packetLength(packetPushStarted)
attr title "incoming packet lengths"
attr unit b
vector 198 LinkDegradation.r4.eth[0].queue incomingDataRate:vector ETV
attr interpolationmode linear
attr recordingmode vector
attr source throughput(packetPushStarted)
attr title "incoming datarate"
attr unit bps
vector 199 LinkDegradation.r4.eth[0].queue outgoingPacketLengths:vector ETV
attr interpolationmode none
attr recordingmode vector
attr source packetLength(packetPulled)
attr title "outgoing packet lengths"
attr unit b
vector 200 LinkDegradation.r4.eth[0].queue outgoingDataRate:vector ETV
attr interpolationmode linear
attr recordingmode vector
attr source throughput(packetPulled)
attr title "outgoing datarate"
attr unit bps
vector 201 LinkDegradation.r4.eth[0].queue droppedPacketLengthsQueueOverflow:vector ETV
attr interpolationmode none
attr recordingmode vector
attr source packetLength(packetDropReasonIsQueueOverflow(packetDropped))
attr title "dropped packet lengths: queue overflow"
attr unit b
vector 202 LinkDegradation.r4.eth[0].queue flowQueueingTime:vector ETV
attr interpolationmode none
attr recordingmode vector
attr source queueingTime(demuxFlow(packetPulled))
attr title "flow queueing times"
attr unit s
vector 203 LinkDegradation.r4.eth[0].queue flowIncomingDataRate:vector ETV
attr interpolationmode linear
attr recordingmode vector
attr source throughput(flowPacketLength(demuxFlow(packetPushStarted)))
attr title "flow specific incoming data rate"
attr unit bps
vector 204 LinkDegradation.r4.eth[0].queue flowOutgoingDataRate:vector ETV
attr interpolationmode linear
attr recordingmode vector
attr source throughput(flowPacketLength(demuxFlow(packetPulled)))
attr title "flow specific outgoing data rate"
attr unit bps
vector 205 LinkDegradation.r4.eth[0].mac txPk:vector(packetBytes) ETV
attr interpolationmode none
attr recordingmode vector(packetBytes)
attr source packetSentToLower
attr title "packets transmitted, packetBytes"
vector 206 LinkDegradation.r4.eth[0].mac rxPkOk:vector(packetBytes) ETV
attr interpolationmode none
attr recordingmode vector(packetBytes)
attr source rxPkOk
attr title "packets received OK, packetBytes"
vector 207 LinkDegradation.r4.eth[0].mac passedUpPk:vector(packetBytes) ETV
attr interpolationmode none
attr recordingmode vector(packetBytes)
attr source packetSentToUpper
attr title "packets passed to higher layer, packetBytes"
vector 208 LinkDegradation.r4.eth[0].mac txPausePkUnits:vector ETV
attr interpolationmode none
attr recordingmode vector
attr title "pause units sent"
vector 209 LinkDegradation.r4.eth[0].mac rxPausePkUnits:vector ETV
attr interpolationmode none
attr recordingmode vector
attr title "pause units received"
vector 210 LinkDegradation.r4.eth[0].mac packetReceivedFromUpper:vector(packetBytes) ETV
attr interpolationmode none
attr recordingmode vector(packetBytes)
attr source packetReceivedFromUpper
attr title "packet bytes from higher layer, packetBytes"
vector 211 LinkDegradation.r4.eth[0].mac packetDropIncorrectlyReceived:vector(packetBytes) ETV
attr interpolationmode none
attr recordingmode vector(packetBytes)
attr source packetDropReasonIsIncorrectlyReceived(packetDropped)
attr title "packet drop: incorrectly received, packetBytes"
vector 212 LinkDegradation.r4.eth[0].mac packetDropInterfaceDown:vector(packetBytes) ETV
attr interpolationmode none
attr recordingmode vector(packetBytes)
attr source packetDropReasonIsInterfaceDown(packetDropped)
attr title "packet drop: interface down, packetBytes"
vector 213 LinkDegradation.r4.eth[0].mac packetDropNotAddressedToUs:vector(packetBytes) ETV
attr interpolationmode none
attr recordingmode vector(packetBytes)
attr source packetDropReasonIsNotAddressedToUs(packetDropped)
attr title "packet drop: not addressed to us, packetBytes"
vector 214 LinkDegradation.r4.eth[0] packetDropInterfaceDown:vector(packetBytes) ETV
attr interpolationmode none
attr recordingmode vector(packetBytes)
attr source packetDropReasonIsInterfaceDown(packetDropped)
attr title "packet drops: interface down, packetBytes"
vector 215 LinkDegradation.r4.eth[0] packetDropNoCarrier:vector(packetBytes) ETV
attr interpolationmode none
attr recordingmode vector(packetBytes)
attr source packetDropReasonIsNoCarrier(packetDropped)
attr title "packet drops: no carrier, packetBytes"
vector 216 LinkDegradation.r4.eth[1].queue queueLength:vector ETV
attr autoWarmupFilter false
attr interpolationmode sample-hold
attr recordingmode vector
attr source "warmup(atomic(constant0(packetPushEnded) + count(packetPushStarted) - count(packetPulled) - count(packetRemoved) - count(packetDropped)))"
attr title "queue length"
attr unit pk
vector 217 LinkDegradation.r4.eth[1].queue queueBitLength:vector ETV
attr autoWarmupFilter false
attr interpolationmode sample-hold
attr recordingmode vector
attr source "warmup(atomic(constant0(packetPushEnded) + sum(packetLength(packetPushStarted)) - sum(packetLength(packetPulled)) - sum(packetLength(packetRemoved)) - sum(packetLength(packetDropped))))"
attr title "queue bit length"
attr unit b
vector 218 LinkDegradation.r4.eth[1].queue queueingTime:vector ETV
attr interpolationmode none
attr recordingmode vector
attr source queueingTime(packetPulled)
attr title "queueing times"
attr unit s
vector 219 LinkDegradation.r4.eth[1].queue incomingPacketLengths:vector ETV
attr interpolationmode none
attr recordingmode vector
attr source packetLength(packetPushStarted)
attr title "incoming packet lengths"
attr unit b
vector 220 LinkDegradation.r4.eth[1].queue incomingDataRate:vector ETV
attr interpolationmode linear
attr recordingmode vector
attr source throughput(packetPushStarted)
attr title "incoming datarate"
attr unit bps
vector 221 LinkDegradation.r4.eth[1].queue outgoingPacketLengths:vector ETV
attr interpolationmode none
attr recordingmode vector
attr source packetLength(packetPulled)
attr title "outgoing packet lengths"
attr unit b
vector 222 LinkDegradation.r4.eth[1].queue outgoingDataRate:vector ETV
attr interpolationmode linear
attr recordingmode vector
attr source throughput(packetPulled)
attr title "outgoing datarate"
attr unit bps
vector 223 LinkDegradation.r4.eth[1].queue droppedPacketLengthsQueueOverflow:vector ETV
attr interpolationmode none
attr recordingmode vector
attr source packetLength(packetDropReasonIsQueueOverflow(packetDropped))
attr title "dropped packet lengths: queue overflow"
attr unit b
vector 224 LinkDegradation.r4.eth[1].queue flowQueueingTime:vector ETV
attr interpolationmode none
attr recordingmode vector
attr source queueingTime(demuxFlow(packetPulled))
attr title "flow queueing times"
attr unit s
vector 225 LinkDegradation.r4.eth[1].queue flowIncomingDataRate:vector ETV
attr interpolationmode linear
attr recordingmode vector
attr source throughput(flowPacketLength(demuxFlow(packetPushStarted)))
attr title "flow specific incoming data rate"
attr unit bps
vector 226 LinkDegradation.r4.eth[1].queue flowOutgoingDataRate:vector ETV
attr interpolationmode linear
attr recordingmode vector
attr source throughput(flowPacketLength(demuxFlow(packetPulled)))
attr title "flow specific outgoing data rate"
attr unit bps
vector 227 LinkDegradation.r4.eth[1].mac txPk:vector(packetBytes) ETV
attr interpolationmode none
attr recordingmode vector(packetBytes)
attr source packetSentToLower
attr title "packets transmitted, packetBytes"
vector 228 LinkDegradation.r4.eth[1].mac rxPkOk:vector(packetBytes) ETV
attr interpolationmode none
attr recordingmode vector(packetBytes)
attr source rxPkOk
attr title "packets received OK, packetBytes"
vector 229 LinkDegradation.r4.eth[1].mac passedUpPk:vector(packetBytes) ETV
attr interpolationmode none
attr recordingmode vector(packetBytes)
attr source packetSentToUpper
attr title "packets passed to higher layer, packetBytes"
vector 230 LinkDegradation.r4.eth[1].mac txPausePkUnits:vector ETV
attr interpolationmode none
attr recordingmode vector
attr title "pause units sent"
vector 231 LinkDegradation.r4.eth[1].mac rxPausePkUnits:vector ETV
attr interpolationmode none
attr recordingmode vector
attr title "pause units received"
vector 232 LinkDegradation.r4.eth[1].mac packetReceivedFromUpper:vector(packetBytes) ETV
attr interpolationmode none
attr recordingmode vector(packetBytes)
attr source packetReceivedFromUpper
attr title "packet bytes from higher layer, packetBytes"
vector 233 LinkDegradation.r4.eth[1].mac packetDropIncorrectlyReceived:vector(packetBytes) ETV
attr interpolationmode none
attr recordingmode vector(packetBytes)
attr source packetDropReasonIsIncorrectlyReceived(packetDropped)
attr title "packet drop: incorrectly received, packetBytes"
vector 234 LinkDegradation.r4.eth[1].mac packetDropInterfaceDown:vector(packetBytes) ETV
attr interpolationmode none
attr recordingmode vector(packetBytes)
attr source packetDropReasonIsInterfaceDown(packetDropped)
attr title "packet drop: interface down, packetBytes"
vector 235 LinkDegradation.r4.eth[1].mac packetDropNotAddressedToUs:vector(packetBytes) ETV
attr interpolationmode none
attr recordingmode vector(packetBytes)
attr source packetDropReasonIsNotAddressedToUs(packetDropped)
attr title "packet drop: not addressed to us, packetBytes"
vector 236 LinkDegradation.r4.eth[1] packetDropInterfaceDown:vector(packetBytes) ETV
attr interpolationmode none
attr recordingmode vector(packetBytes)
attr source packetDropReasonIsInterfaceDown(packetDropped)
attr title "packet drops: interface down, packetBytes"
vector 237 LinkDegradation.r4.eth[1] packetDropNoCarrier:vector(packetBytes) ETV
attr interpolationmode none
attr recordingmode vector(packetBytes)
attr source packetDropReasonIsNoCarrier(packetDropped)
attr title "packet drops: no carrier, packetBytes"
vector 238 LinkDegradation.r4.ipv4.ip packetDropAddressResolutionFailed:vector(packetBytes) ETV
attr interpolationmode none
attr recordingmode vector(packetBytes)
attr source packetDropReasonIsAddressResolutionFailed(packetDropped)
attr title "packet drop: address resolution failed, packetBytes"
vector 239 LinkDegradation.r4.ipv4.ip packetDropHopLimitReached:vector(packetBytes) ETV
attr interpolationmode none
attr recordingmode vector(packetBytes)
attr source packetDropReasonIsHopLimitReached(packetDropped)
attr title "packet drop: hop limit reached, packetBytes"
vector 240 LinkDegradation.r4.ipv4.ip packetDropForwardingDisabled:vector(packetBytes) ETV
attr interpolationmode none
attr recordingmode vector(packetBytes)
attr source packetDropReasonIsForwardingDisabled(packetDropped)
attr title "packet drop: forwarding disabled, packetBytes"
vector 241 LinkDegradation.r4.ipv4.ip packetDropNoInterfaceFound:vector(packetBytes) ETV
attr interpolationmode none
attr recordingmode vector(packetBytes)
attr source packetDropReasonIsNoInterfaceFound(packetDropped)
attr title "packet drop: no interface found, packetBytes"
vector 242 LinkDegradation.r4.ipv4.ip packetDropUndefined:vector(packetBytes) ETV
attr interpolationmode none
attr recordingmode vector(packetBytes)
attr source packetDropReasonIsUndefined(packetDropped)
attr title "packet drop: undefined, packetBytes"
vector 243 LinkDegradation.r4.ipv4.arp arpRequestSent:vector(packetBytes) ETV
attr recordingmode vector(packetBytes)
attr source arpRequestSent
attr title "ARP request sent, packetBytes"
vector 244 LinkDegradation.r4.ipv4.arp arpReplySent:vector(packetBytes) ETV
attr recordingmode vector(packetBytes)
attr source arpReplySent
attr title "ARP replies sent, packetBytes"
vector 245 LinkDegradation.r3.ethernet encapPk:vector(packetBytes) ETV
attr interpolationmode none
attr recordingmode vector(packetBytes)
attr source encapPk
attr title "packets encapsulated, packetBytes"
vector 246 LinkDegradation.r3.ethernet decapPk:vector(packetBytes) ETV
attr interpolationmode none
attr recordingmode vector(packetBytes)
attr source decapPk
attr title "packets decapsulated, packetBytes"
vector 247 LinkDegradation.r3.ethernet pauseSent:vector ETV
attr recordingmode vector
attr title "pause sent"
vector 248 LinkDegradation.r3.lo[0].lo rcvdPkFromHl:vector(packetBytes) ETV
attr interpolationmode none
attr recordingmode vector(packetBytes)
attr source packetReceivedFromUpper
attr title "packets received from higher layer, packetBytes"
vector 249 LinkDegradation.r3.lo[0].lo passedUpPk:vector(packetBytes) ETV
attr interpolationmode none
attr recordingmode vector(packetBytes)
attr source packetSentToUpper
attr title "packets passed to higher layer, packetBytes"
vector 250 LinkDegradation.r3.lo[0] packetDropInterfaceDown:vector(packetBytes) ETV
attr interpolationmode none
attr recordingmode vector(packetBytes)
attr source packetDropReasonIsInterfaceDown(packetDropped)
attr title "packet drops: interface down, packetBytes"
vector 251 LinkDegradation.r3.lo[0] packetDropNoCarrier:vector(packetBytes) ETV
attr interpolationmode none
attr recordingmode vector(packetBytes)
attr source packetDropReasonIsNoCarrier(packetDropped)
attr title "packet drops: no carrier, packetBytes"
vector 252 LinkDegradation.r3.eth[0].queue queueLength:vector ETV
attr autoWarmupFilter false
attr interpolationmode sample-hold
attr recordingmode vector
attr source "warmup(atomic(constant0(packetPushEnded) + count(packetPushStarted) - count(packetPulled) - count(packetRemoved) - count(packetDropped)))"
attr title "queue length"
attr unit pk
vector 253 LinkDegradation.r3.eth[0].queue queueBitLength:vector ETV
attr autoWarmupFilter false
attr interpolationmode sample-hold
attr recordingmode vector
attr source "warmup(atomic(constant0(packetPushEnded) + sum(packetLength(packetPushStarted)) - sum(packetLength(packetPulled)) - sum(packetLength(packetRemoved)) - sum(packetLength(packetDropped))))"
attr title "queue bit length"
attr unit b
vector 254 LinkDegradation.r3.eth[0].queue queueingTime:vector ETV
attr interpolationmode none
attr recordingmode vector
attr source queueingTime(packetPulled)
attr title "queueing times"
attr unit s
vector 255 LinkDegradation.r3.eth[0].queue incomingPacketLengths:vector ETV
attr interpolationmode none
attr recordingmode vector
attr source packetLength(packetPushStarted)
attr title "incoming packet lengths"
attr unit b
vector 256 LinkDegradation.r3.eth[0].queue incomingDataRate:vector ETV
attr interpolationmode linear
attr recordingmode vector
attr source throughput(packetPushStarted)
attr title "incoming datarate"
attr unit bps
vector 257 LinkDegradation.r3.eth[0].queue outgoingPacketLengths:vector ETV
attr interpolationmode none
attr recordingmode vector
attr source packetLength(packetPulled)
attr title "outgoing packet lengths"
attr unit b
vector 258 LinkDegradation.r3.eth[0].queue outgoingDataRate:vector ETV
attr interpolationmode linear
attr recordingmode vector
attr source throughput(packetPulled)
attr title "outgoing datarate"
attr unit bps
vector 259 LinkDegradation.r3.eth[0].queue droppedPacketLengthsQueueOverflow:vector ETV
attr interpolationmode none
attr recordingmode vector
attr source packetLength(packetDropReasonIsQueueOverflow(packetDropped))
attr title "dropped packet lengths: queue overflow"
attr unit b
vector 260 LinkDegradation.r3.eth[0].queue flowQueueingTime:vector ETV
attr interpolationmode none
attr recordingmode vector
attr source queueingTime(demuxFlow(packetPulled))
attr title "flow queueing times"
attr unit s
vector 261 LinkDegradation.r3.eth[0].queue flowIncomingDataRate:vector ETV
attr interpolationmode linear
attr recordingmode vector
attr source throughput(flowPacketLength(demuxFlow(packetPushStarted)))
attr title "flow specific incoming data rate"
attr unit bps
vector 262 LinkDegradation.r3.eth[0].queue flowOutgoingDataRate:vector ETV
attr interpolationmode linear
attr recordingmode vector
attr source throughput(flowPacketLength(demuxFlow(packetPulled)))
attr title "flow specific outgoing data rate"
attr unit bps
vector 263 LinkDegradation.r3.eth[0].mac txPk:vector(packetBytes) ETV
attr interpolationmode none
attr recordingmode vector(packetBytes)
attr source packetSentToLower
attr title "packets transmitted, packetBytes"
vector 264 LinkDegradation.r3.eth[0].mac rxPkOk:vector(packetBytes) ETV
attr interpolationmode none
attr recordingmode vector(packetBytes)
attr source rxPkOk
attr title "packets received OK, packetBytes"
vector 265 LinkDegradation.r3.eth[0].mac passedUpPk:vector(packetBytes) ETV
attr interpolationmode none
attr recordingmode vector(packetBytes)
attr source packetSentToUpper
attr title "packets passed to higher layer, packetBytes"
vector 266 LinkDegradation.r3.eth[0].mac txPausePkUnits:vector ETV
attr interpolationmode none
attr recordingmode vector
attr title "pause units sent"
vector 267 LinkDegradation.r3.eth[0].mac rxPausePkUnits:vector ETV
attr interpolationmode none
attr recordingmode vector
attr title "pause units received"
vector 268 LinkDegradation.r3.eth[0].mac packetReceivedFromUpper:vector(packetBytes) ETV
attr interpolationmode none
attr recordingmode vector(packetBytes)
attr source packetReceivedFromUpper
attr title "packet bytes from higher layer, packetBytes"
vector 269 LinkDegradation.r3.eth[0].mac packetDropIncorrectlyReceived:vector(packetBytes) ETV
attr interpolationmode none
attr recordingmode vector(packetBytes)
attr source packetDropReasonIsIncorrectlyReceived(packetDropped)
attr title "packet drop: incorrectly received, packetBytes"
vector 270 LinkDegradation.r3.eth[0].mac packetDropInterfaceDown:vector(packetBytes) ETV
attr interpolationmode none
attr recordingmode vector(packetBytes)
attr source packetDropReasonIsInterfaceDown(packetDropped)
attr title "packet drop: interface down, packetBytes"
vector 271 LinkDegradation.r3.eth[0].mac packetDropNotAddressedToUs:vector(packetBytes) ETV
attr interpolationmode none
attr recordingmode vector(packetBytes)
attr source packetDropReasonIsNotAddressedToUs(packetDropped)
attr title "packet drop: not addressed to us, packetBytes"
vector 272 LinkDegradation.r3.eth[0] packetDropInterfaceDown:vector(packetBytes) ETV
attr interpolationmode none
attr recordingmode vector(packetBytes)
attr source packetDropReasonIsInterfaceDown(packetDropped)
attr title "packet drops: interface down, packetBytes"
vector 273 LinkDegradation.r3.eth[0] packetDropNoCarrier:vector(packetBytes) ETV
attr interpolationmode none
attr recordingmode vector(packetBytes)
attr source packetDropReasonIsNoCarrier(packetDropped)
attr title "packet drops: no carrier, packetBytes"
vector 274 LinkDegradation.r3.eth[1].queue queueLength:vector ETV
attr autoWarmupFilter false
attr interpolationmode sample-hold
attr recordingmode vector
attr source "warmup(atomic(constant0(packetPushEnded) + count(packetPushStarted) - count(packetPulled) - count(packetRemoved) - count(packetDropped)))"
attr title "queue length"
attr unit pk
vector 275 LinkDegradation.r3.eth[1].queue queueBitLength:vector ETV
attr autoWarmupFilter false
attr interpolationmode sample-hold
attr recordingmode vector
attr source "warmup(atomic(constant0(packetPushEnded) + sum(packetLength(packetPushStarted)) - sum(packetLength(packetPulled)) - sum(packetLength(packetRemoved)) - sum(packetLength(packetDropped))))"
attr title "queue bit length"
attr unit b
vector 276 LinkDegradation.r3.eth[1].queue queueingTime:vector ETV
attr interpolationmode none
attr recordingmode vector
attr source queueingTime(packetPulled)
attr title "queueing times"
attr unit s
vector 277 LinkDegradation.r3.eth[1].queue incomingPacketLengths:vector ETV
attr interpolationmode none
attr recordingmode vector
attr source packetLength(packetPushStarted)
attr title "incoming packet lengths"
attr unit b
vector 278 LinkDegradation.r3.eth[1].queue incomingDataRate:vector ETV
attr interpolationmode linear
attr recordingmode vector
attr source throughput(packetPushStarted)
attr title "incoming datarate"
attr unit bps
vector 279 LinkDegradation.r3.eth[1].queue outgoingPacketLengths:vector ETV
attr interpolationmode none
attr recordingmode vector
attr source packetLength(packetPulled)
attr title "outgoing packet lengths"
attr unit b
vector 280 LinkDegradation.r3.eth[1].queue outgoingDataRate:vector ETV
attr interpolationmode linear
attr recordingmode vector
attr source throughput(packetPulled)
attr title "outgoing datarate"
attr unit bps
vector 281 LinkDegradation.r3.eth[1].queue droppedPacketLengthsQueueOverflow:vector ETV
attr interpolationmode none
attr recordingmode vector
attr source packetLength(packetDropReasonIsQueueOverflow(packetDropped))
attr title "dropped packet lengths: queue overflow"
attr unit b
vector 282 LinkDegradation.r3.eth[1].queue flowQueueingTime:vector ETV
attr interpolationmode none
attr recordingmode vector
attr source queueingTime(demuxFlow(packetPulled))
attr title "flow queueing times"
attr unit s
vector 283 LinkDegradation.r3.eth[1].queue flowIncomingDataRate:vector ETV
attr interpolationmode linear
attr recordingmode vector
attr source throughput(flowPacketLength(demuxFlow(packetPushStarted)))
attr title "flow specific incoming data rate"
attr unit bps
vector 284 LinkDegradation.r3.eth[1].queue flowOutgoingDataRate:vector ETV
attr interpolationmode linear
attr recordingmode vector
attr source throughput(flowPacketLength(demuxFlow(packetPulled)))
attr title "flow specific outgoing data rate"
attr unit bps
vector 285 LinkDegradation.r3.eth[1].mac txPk:vector(packetBytes) ETV
attr interpolationmode none
attr recordingmode vector(packetBytes)
attr source packetSentToLower
attr title "packets transmitted, packetBytes"
vector 286 LinkDegradation.r3.eth[1].mac rxPkOk:vector(packetBytes) ETV
attr interpolationmode none
attr recordingmode vector(packetBytes)
attr source rxPkOk
attr title "packets received OK, packetBytes"
vector 287 LinkDegradation.r3.eth[1].mac passedUpPk:vector(packetBytes) ETV
attr interpolationmode none
attr recordingmode vector(packetBytes)
attr source packetSentToUpper
attr title "packets passed to higher layer, packetBytes"
vector 288 LinkDegradation.r3.eth[1].mac txPausePkUnits:vector ETV
attr interpolationmode none
attr recordingmode vector
attr title "pause units sent"
vector 289 LinkDegradation.r3.eth[1].mac rxPausePkUnits:vector ETV
attr interpolationmode none
attr recordingmode vector
attr title "pause units received"
vector 290 LinkDegradation.r3.eth[1].mac packetReceivedFromUpper:vector(packetBytes) ETV
attr interpolationmode none
attr recordingmode vector(packetBytes)
attr source packetReceivedFromUpper
attr title "packet bytes from higher layer, packetBytes"
vector 291 LinkDegradation.r3.eth[1].mac packetDropIncorrectlyReceived:vector(packetBytes) ETV
attr interpolationmode none
attr recordingmode vector(packetBytes)
attr source packetDropReasonIsIncorrectlyReceived(packetDropped)
attr title "packet drop: incorrectly received, packetBytes"
vector 292 LinkDegradation.r3.eth[1].mac packetDropInterfaceDown:vector(packetBytes) ETV
attr interpolationmode none
attr recordingmode vector(packetBytes)
attr source packetDropReasonIsInterfaceDown(packetDropped)
attr title "packet drop: interface down, packetBytes"
vector 293 LinkDegradation.r3.eth[1].mac packetDropNotAddressedToUs:vector(packetBytes) ETV
attr interpolationmode none
attr recordingmode vector(packetBytes)
attr source packetDropReasonIsNotAddressedToUs(packetDropped)
attr title "packet drop: not addressed to us, packetBytes"
vector 294 LinkDegradation.r3.eth[1] packetDropInterfaceDown:vector(packetBytes) ETV
attr interpolationmode none
attr recordingmode vector(packetBytes)
attr source packetDropReasonIsInterfaceDown(packetDropped)
attr title "packet drops: interface down, packetBytes"
vector 295 LinkDegradation.r3.eth[1] packetDropNoCarrier:vector(packetBytes) ETV
attr interpolationmode none
attr recordingmode vector(packetBytes)
attr source packetDropReasonIsNoCarrier(packetDropped)
attr title "packet drops: no carrier, packetBytes"
vector 296 LinkDegradation.r3.eth[2].queue queueLength:vector ETV
attr autoWarmupFilter false
attr interpolationmode sample-hold
attr recordingmode vector
attr source "warmup(atomic(constant0(packetPushEnded) + count(packetPushStarted) - count(packetPulled) - count(packetRemoved) - count(packetDropped)))"
attr title "queue length"
attr unit pk
vector 297 LinkDegradation.r3.eth[2].queue queueBitLength:vector ETV
attr autoWarmupFilter false
attr interpolationmode sample-hold
attr recordingmode vector
attr source "warmup(atomic(constant0(packetPushEnded) + sum(packetLength(packetPushStarted)) - sum(packetLength(packetPulled)) - sum(packetLength(packetRemoved)) - sum(packetLength(packetDropped))))"
attr title "queue bit length"
attr unit b
vector 298 LinkDegradation.r3.eth[2].queue queueingTime:vector ETV
attr interpolationmode none
attr recordingmode vector
attr source queueingTime(packetPulled)
attr title "queueing times"
attr unit s
vector 299 LinkDegradation.r3.eth[2].queue incomingPacketLengths:vector ETV
attr interpolationmode none
attr recordingmode vector
attr source packetLength(packetPushStarted)
attr title "incoming packet lengths"
attr unit b
vector 300 LinkDegradation.r3.eth[2].queue incomingDataRate:vector ETV
attr interpolationmode linear
attr recordingmode vector
attr source throughput(packetPushStarted)
attr title "incoming datarate"
attr unit bps
vector 301 LinkDegradation.r3.eth[2].queue outgoingPacketLengths:vector ETV
attr interpolationmode none
attr recordingmode vector
attr source packetLength(packetPulled)
attr title "outgoing packet lengths"
attr unit b
vector 302 LinkDegradation.r3.eth[2].queue outgoingDataRate:vector ETV
attr interpolationmode linear
attr recordingmode vector
attr source throughput(packetPulled)
attr title "outgoing datarate"
attr unit bps
vector 303 LinkDegradation.r3.eth[2].queue droppedPacketLengthsQueueOverflow:vector ETV
attr interpolationmode none
attr recordingmode vector
attr source packetLength(packetDropReasonIsQueueOverflow(packetDropped))
attr title "dropped packet lengths: queue overflow"
attr unit b
vector 304 LinkDegradation.r3.eth[2].queue flowQueueingTime:vector ETV
attr interpolationmode none
attr recordingmode vector
attr source queueingTime(demuxFlow(packetPulled))
attr title "flow queueing times"
attr unit s
vector 305 LinkDegradation.r3.eth[2].queue flowIncomingDataRate:vector ETV
attr interpolationmode linear
attr recordingmode vector
attr source throughput(flowPacketLength(demuxFlow(packetPushStarted)))
attr title "flow specific incoming data rate"
attr unit bps
vector 306 LinkDegradation.r3.eth[2].queue flowOutgoingDataRate:vector ETV
attr interpolationmode linear
attr recordingmode vector
attr source throughput(flowPacketLength(demuxFlow(packetPulled)))
attr title "flow specific outgoing data rate"
attr unit bps
vector 307 LinkDegradation.r3.eth[2].mac txPk:vector(packetBytes) ETV
attr interpolationmode none
attr recordingmode vector(packetBytes)
attr source packetSentToLower
attr title "packets transmitted, packetBytes"
vector 308 LinkDegradation.r3.eth[2].mac rxPkOk:vector(packetBytes) ETV
attr interpolationmode none
attr recordingmode vector(packetBytes)
attr source rxPkOk
attr title "packets received OK, packetBytes"
vector 309 LinkDegradation.r3.eth[2].mac passedUpPk:vector(packetBytes) ETV
attr interpolationmode none
attr recordingmode vector(packetBytes)
attr source packetSentToUpper
attr title "packets passed to higher layer, packetBytes"
vector 310 LinkDegradation.r3.eth[2].mac txPausePkUnits:vector ETV
attr interpolationmode none
attr recordingmode vector
attr title "pause units sent"
vector 311 LinkDegradation.r3.eth[2].mac rxPausePkUnits:vector ETV
attr interpolationmode none
attr recordingmode vector
attr title "pause units received"
vector 312 LinkDegradation.r3.eth[2].mac packetReceivedFromUpper:vector(packetBytes) ETV
attr interpolationmode none
attr recordingmode vector(packetBytes)
attr source packetReceivedFromUpper
attr title "packet bytes from higher layer, packetBytes"
vector 313 LinkDegradation.r3.eth[2].mac packetDropIncorrectlyReceived:vector(packetBytes) ETV
attr interpolationmode none
attr recordingmode vector(packetBytes)
[...]
369	3494	22.6	10240
369	3494	22.7	0
369	3575	22.8	10240
369	3575	22.9	0
369	3575	23	0
369	3608	23.1	10240
369	3608	23.2	0
369	3642	23.3	10240
369	3642	23.4	0
369	3642	23.5	0
369	3675	23.6	10240
369	3675	23.7	0
369	3756	23.8	10240
369	3756	23.9	0
369	3756	24	0
369	3789	24.1	10240
369	3789	24.2	0
369	3823	24.3	10240
369	3823	24.4	0
369	3823	24.5	0
369	3856	24.6	10240
369	3856	24.7	0
369	3937	24.8	10240
369	3937	24.9	0
369	3937	25	0
369	3980	25.1	10240
369	3980	25.2	0
369	4014	25.3	10240
369	4014	25.4	0
369	4014	25.5	0
369	4047	25.6	10240
369	4047	25.7	0
369	4128	25.8	10240
369	4128	25.9	0
369	4128	26	0
369	4161	26.1	10240
369	4161	26.2	0
369	4195	26.3	10240
369	4195	26.4	0
369	4195	26.5	0
369	4228	26.6	10240
369	4228	26.7	0
369	4331	26.8	10240
369	4331	26.9	0
369	4331	27	0
369	4331	27.1	0
369	4331	27.2	0
369	4365	27.3	10240
369	4365	27.4	0
369	4365	27.5	0
369	4398	27.6	10240
369	4398	27.7	0
369	4479	27.8	10240
369	4479	27.9	0
369	4479	28	0
369	4512	28.1	10240
369	4512	28.2	0
369	4546	28.3	10240
369	4546	28.4	0
369	4546	28.5	0
369	4649	28.6	10240
369	4649	28.7	0
369	4649	28.8	0
369	4649	28.9	0
369	4649	29	0
369	4682	29.1	10240
369	4682	29.2	0
369	4716	29.3	10240
369	4716	29.4	0
369	4716	29.5	0
369	4749	29.6	10240
369	4749	29.7	0
369	4830	29.8	10240
369	4830	29.9	0
369	4830	30	0
369	4971	30.1	10240
369	4971	30.2	0
369	5005	30.3	10240
369	5005	30.4	0
369	5005	30.5	0
369	5038	30.6	10240
369	5038	30.7	0
369	5119	30.8	10240
369	5119	30.9	0
369	5119	31	0
369	5152	31.1	10240
369	5152	31.2	0
369	5186	31.3	10240
369	5186	31.4	0
369	5186	31.5	0
369	5219	31.6	10240
369	5219	31.7	0
369	5300	31.8	10240
369	5300	31.9	0
369	5300	32	0
369	5333	32.1	10240
369	5333	32.2	0
369	5367	32.3	10240
369	5367	32.4	0
369	5367	32.5	0
369	5400	32.6	10240
369	5400	32.7	0
369	5481	32.8	10240
369	5481	32.9	0
369	5481	33	0
369	5537	33.1	10240
369	5537	33.2	0
369	5537	33.3	0
369	5537	33.4	0
369	5537	33.5	0
369	5570	33.6	10240
369	5570	33.7	0
369	5651	33.8	10240
369	5651	33.9	0
369	5651	34	0
369	5684	34.1	10240
369	5684	34.2	0
369	5718	34.3	10240
369	5718	34.4	0
369	5718	34.5	0
369	5751	34.6	10240
369	5751	34.7	0
369	5832	34.8	10240
369	5832	34.9	0
369	5832	35	0
369	5875	35.1	10240
369	5875	35.2	0
369	5909	35.3	10240
369	5909	35.4	0
369	5909	35.5	0
369	5942	35.6	10240
369	5942	35.7	0
369	6023	35.8	10240
369	6023	35.9	0
369	6023	36	0
369	6056	36.1	10240
369	6056	36.2	0
369	6090	36.3	10240
369	6090	36.4	0
369	6090	36.5	0
369	6123	36.6	10240
369	6123	36.7	0
369	6204	36.8	10240
369	6204	36.9	0
369	6204	37	0
369	6237	37.1	10240
369	6237	37.2	0
369	6271	37.3	10240
369	6271	37.4	0
369	6271	37.5	0
369	6304	37.6	10240
369	6304	37.7	0
369	6385	37.8	10240
369	6385	37.9	0
369	6385	38	0
369	6418	38.1	10240
369	6418	38.2	0
369	6452	38.3	10240
369	6452	38.4	0
369	6452	38.5	0
369	6485	38.6	10240
369	6485	38.7	0
369	6566	38.8	10240
369	6566	38.9	0
369	6566	39	0
369	6599	39.1	10240
369	6599	39.2	0
369	6633	39.3	10240
369	6633	39.4	0
369	6633	39.5	0
369	6666	39.6	10240
369	6666	39.7	0
369	6854	39.8	10240
369	6854	39.9	0
369	6854	40	0
369	7012	40.1	10240
369	7012	40.2	0
369	7045	40.3	10240
369	7045	40.4	0
369	7045	40.5	0
369	7078	40.6	10240
369	7078	40.7	0
369	7203	40.8	10240
369	7203	40.9	0
369	7203	41	0
369	7236	41.1	10240
369	7236	41.2	0
369	7269	41.3	10240
369	7269	41.4	0
369	7269	41.5	0
369	7302	41.6	10240
369	7302	41.7	0
369	7382	41.8	10240
369	7382	41.9	0
369	7382	42	0
369	7415	42.1	10240
369	7415	42.2	0
369	7448	42.3	10240
369	7448	42.4	0
369	7448	42.5	0
369	7550	42.6	10240
369	7550	42.7	0
369	7550	42.8	0
369	7550	42.9	0
369	7550	43	0
369	7583	43.1	10240
369	7583	43.2	0
369	7616	43.3	10240
369	7616	43.4	0
369	7616	43.5	0
369	7649	43.6	10240
369	7649	43.7	0
369	7751	43.8	10240
369	7751	43.9	0
369	7751	44	0
369	7751	44.1	0
369	7751	44.2	0
369	7784	44.3	10240
369	7784	44.4	0
369	7784	44.5	0
369	7817	44.6	10240
369	7817	44.7	0
369	7969	44.8	10240
369	7969	44.9	0
369	7969	45	0
369	8002	45.1	10240
369	8002	45.2	0
369	8035	45.3	10240
369	8035	45.4	0
369	8035	45.5	0
369	8068	45.6	10240
369	8068	45.7	0
369	8200	45.8	10240
369	8200	45.9	0
369	8200	46	0
369	8233	46.1	10240
369	8233	46.2	0
369	8266	46.3	10240
369	8266	46.4	0
369	8266	46.5	0
369	8299	46.6	10240
369	8299	46.7	0
369	8377	46.8	10240
369	8377	46.9	0
369	8377	47	0
369	8410	47.1	10240
369	8410	47.2	0
369	8443	47.3	10240
369	8443	47.4	0
369	8443	47.5	0
369	8476	47.6	10240
369	8476	47.7	0
369	8554	47.8	10240
369	8554	47.9	0
369	8554	48	0
369	8587	48.1	10240
369	8587	48.2	0
369	8620	48.3	10240
369	8620	48.4	0
369	8620	48.5	0
369	8653	48.6	10240
369	8653	48.7	0
369	8731	48.8	10240
369	8731	48.9	0
369	8731	49	0
369	8764	49.1	10240
369	8764	49.2	0
369	8797	49.3	10240
369	8797	49.4	0
369	8797	49.5	0
369	8830	49.6	10240
369	8830	49.7	0
369	8964	49.8	10240
369	8964	49.9	0
369	8964	50	0
369	9075	50.1	10240
369	9075	50.2	0
369	9108	50.3	10240
369	9108	50.4	0
369	9108	50.5	0
369	9141	50.6	10240
369	9141	50.7	0
369	9273	50.8	10240
369	9273	50.9	0
369	9273	51	0
369	9306	51.1	10240
369	9306	51.2	0
369	9339	51.3	10240
369	9339	51.4	0
369	9339	51.5	0
369	9372	51.6	10240
369	9372	51.7	0
369	9450	51.8	10240
369	9450	51.9	0
369	9450	52	0
369	9483	52.1	10240
369	9483	52.2	0
369	9516	52.3	10240
369	9516	52.4	0
369	9516	52.5	0
369	9549	52.6	10240
369	9549	52.7	0
369	9627	52.8	10240
369	9627	52.9	0
369	9627	53	0
369	9660	53.1	10240
369	9660	53.2	0
369	9693	53.3	10240
369	9693	53.4	0
369	9693	53.5	0
369	9726	53.6	10240
369	9726	53.7	0
369	9804	53.8	10240
369	9804	53.9	0
369	9804	54	0
369	9837	54.1	10240
369	9837	54.2	0
369	9870	54.3	10240
369	9870	54.4	0
369	9870	54.5	0
369	9903	54.6	10240
369	9903	54.7	0
369	9981	54.8	10240
369	9981	54.9	0
369	9981	55	0
369	10014	55.1	10240
369	10014	55.2	0
369	10047	55.3	10240
369	10047	55.4	0
369	10047	55.5	0
369	10080	55.6	10240
369	10080	55.7	0
369	10158	55.8	10240
369	10158	55.9	0
369	10158	56	0
369	10191	56.1	10240
369	10191	56.2	0
369	10224	56.3	10240
369	10224	56.4	0
369	10224	56.5	0
369	10257	56.6	10240
369	10257	56.7	0
369	10335	56.8	10240
369	10335	56.9	0
369	10335	57	0
369	10368	57.1	10240
369	10368	57.2	0
369	10401	57.3	10240
369	10401	57.4	0
369	10401	57.5	0
369	10434	57.6	10240
369	10434	57.7	0
369	10512	57.8	10240
369	10512	57.9	0
369	10512	58	0
369	10545	58.1	10240
369	10545	58.2	0
369	10578	58.3	10240
369	10578	58.4	0
369	10578	58.5	0
369	10611	58.6	10240
369	10611	58.7	0
369	10689	58.8	10240
369	10689	58.9	0
369	10689	59	0
369	10722	59.1	10240
369	10722	59.2	0
369	10755	59.3	10240
369	10755	59.4	0
369	10755	59.5	0
369	10788	59.6	10240
369	10788	59.7	0
369	10812	59.8	10240
369	10812	59.9	0
369	10812	60	0
370	1453	12.00005864	5.864e-05
370	1514	12.25005864	5.864e-05
370	1547	12.50005864	5.864e-05
370	1580	12.75005864	5.864e-05
370	1660	13.00019704	0.00019704
370	1693	13.25005864	5.864e-05
370	1726	13.50005864	5.864e-05
370	1759	13.75005864	5.864e-05
370	1839	14.00019704	0.00019704
370	1872	14.25005864	5.864e-05
370	1905	14.50005864	5.864e-05
370	1938	14.75005864	5.864e-05
370	2018	15.00019704	0.00019704
370	2061	15.25005864	5.864e-05
370	2094	15.50005864	5.864e-05
370	2127	15.75005864	5.864e-05
370	2207	16.00019704	0.00019704
370	2240	16.25005864	5.864e-05
370	2273	16.50005864	5.864e-05
370	2306	16.75005864	5.864e-05
370	2386	17.00019704	0.00019704
370	2419	17.25005864	5.864e-05
370	2452	17.50005864	5.864e-05
370	2485	17.75005864	5.864e-05
370	2565	18.00019704	0.00019704
370	2598	18.25005864	5.864e-05
370	2631	18.50005864	5.864e-05
370	2664	18.75005864	5.864e-05
370	2744	19.00019704	0.00019704
370	2777	19.25005864	5.864e-05
370	2810	19.50005864	5.864e-05
370	2843	19.75005864	5.864e-05
370	2924	20.00019704	0.00019704
370	3065	20.25005864	5.864e-05
370	3099	20.5010586375	0.0010586375
370	3132	20.7510586375	0.0010586375
370	3213	21.002197035	0.002197035
370	3246	21.252058635	0.002058635
370	3280	21.5030586325	0.0030586325
370	3313	21.7530586325	0.0030586325
370	3394	22.00419703	0.00419703
370	3427	22.25405863	0.00405863
370	3461	22.5050586275	0.0050586275
370	3494	22.7550586275	0.0050586275
370	3575	23.006197025	0.006197025
370	3608	23.256058625	0.006058625
370	3642	23.5070586225	0.0070586225
370	3675	23.7570586225	0.0070586225
370	3756	24.00819702	0.00819702
370	3789	24.25805862	0.00805862
370	3823	24.5090586175	0.0090586175
370	3856	24.7590586175	0.0090586175
370	3937	25.010197015	0.010197015
370	3980	25.260058615	0.010058615
370	4014	25.5110586125	0.0110586125
370	4047	25.7610586125	0.0110586125
370	4128	26.01219701	0.01219701
370	4161	26.26205861	0.01205861
370	4195	26.5130586075	0.0130586075
370	4228	26.7630586075	0.0130586075
370	4331	27.264058605	0.014058605
370	4365	27.5150586025	0.0150586025
370	4398	27.7650586025	0.0150586025
370	4479	28.016197	0.016197
370	4512	28.2660586	0.0160586
370	4546	28.5170585975	0.0170585975
370	4649	29.018196995	0.018196995
370	4682	29.268058595	0.018058595
370	4716	29.5190585925	0.0190585925
370	4749	29.7690585925	0.0190585925
370	4830	30.02019699	0.02019699
370	4971	30.27005859	0.02005859
370	5005	30.5210585875	0.0210585875
370	5038	30.7710585875	0.0210585875
370	5119	31.022196985	0.022196985
370	5152	31.272058585	0.022058585
370	5186	31.5230585825	0.0230585825
370	5219	31.7730585825	0.0230585825
370	5300	32.02419698	0.02419698
370	5333	32.27405858	0.02405858
370	5367	32.5250585775	0.0250585775
370	5400	32.7750585775	0.0250585775
370	5481	33.026196975	0.026196975
370	5537	33.5270585725	0.0270585725
370	5570	33.7770585725	0.0270585725
370	5651	34.02819697	0.02819697
370	5684	34.27805857	0.02805857
370	5718	34.5290585675	0.0290585675
370	5751	34.7790585675	0.0290585675
370	5832	35.030196965	0.030196965
370	5875	35.280058565	0.030058565
370	5909	35.5310585625	0.0310585625
370	5942	35.7810585625	0.0310585625
370	6023	36.03219696	0.03219696
370	6056	36.28205856	0.03205856
370	6090	36.5330585575	0.0330585575
370	6123	36.7830585575	0.0330585575
370	6204	37.034196955	0.034196955
370	6237	37.284058555	0.034058555
370	6271	37.5350585525	0.0350585525
370	6304	37.7850585525	0.0350585525
370	6385	38.03619695	0.03619695
370	6418	38.28605855	0.03605855
370	6452	38.5370585475	0.0370585475
370	6485	38.7870585475	0.0370585475
370	6566	39.038196945	0.038196945
370	6599	39.288058545	0.038058545
370	6633	39.5390585425	0.0390585425
370	6666	39.7890585425	0.0390585425
370	6854	40.04019694	0.04019694
370	7012	40.29005854	0.04005854
370	7045	40.54005854	0.04005854
370	7078	40.79005854	0.04005854
370	7203	41.04019694	0.04019694
370	7236	41.29005854	0.04005854
370	7269	41.54005854	0.04005854
370	7302	41.79005854	0.04005854
370	7382	42.04019694	0.04019694
370	7415	42.29005854	0.04005854
370	7448	42.54005854	0.04005854
370	7550	43.04019694	0.04019694
370	7583	43.29005854	0.04005854
370	7616	43.54005854	0.04005854
370	7649	43.79005854	0.04005854
370	7751	44.29005854	0.04005854
370	7784	44.54005854	0.04005854
370	7817	44.79005854	0.04005854
370	7969	45.00019704	0.00019704
370	8002	45.25005864	5.864e-05
370	8035	45.50005864	5.864e-05
370	8068	45.75005864	5.864e-05
370	8200	46.00019704	0.00019704
370	8233	46.25005864	5.864e-05
370	8266	46.50005864	5.864e-05
370	8299	46.75005864	5.864e-05
370	8377	47.00019704	0.00019704
370	8410	47.25005864	5.864e-05
370	8443	47.50005864	5.864e-05
370	8476	47.75005864	5.864e-05
370	8554	48.00019704	0.00019704
370	8587	48.25005864	5.864e-05
370	8620	48.50005864	5.864e-05
370	8653	48.75005864	5.864e-05
370	8731	49.00019704	0.00019704
370	8764	49.25005864	5.864e-05
370	8797	49.50005864	5.864e-05
370	8830	49.75005864	5.864e-05
370	8964	50.00019704	0.00019704
370	9075	50.25005864	5.864e-05
370	9108	50.50005864	5.864e-05
370	9141	50.75005864	5.864e-05
370	9273	51.00019704	0.00019704
370	9306	51.25005864	5.864e-05
370	9339	51.50005864	5.864e-05
370	9372	51.75005864	5.864e-05
370	9450	52.00019704	0.00019704
370	9483	52.25005864	5.864e-05
370	9516	52.50005864	5.864e-05
370	9549	52.75005864	5.864e-05
370	9627	53.00019704	0.00019704
370	9660	53.25005864	5.864e-05
370	9693	53.50005864	5.864e-05
370	9726	53.75005864	5.864e-05
370	9804	54.00019704	0.00019704
370	9837	54.25005864	5.864e-05
370	9870	54.50005864	5.864e-05
370	9903	54.75005864	5.864e-05
370	9981	55.00019704	0.00019704
370	10014	55.25005864	5.864e-05
370	10047	55.50005864	5.864e-05
370	10080	55.75005864	5.864e-05
370	10158	56.00019704	0.00019704
370	10191	56.25005864	5.864e-05
370	10224	56.50005864	5.864e-05
370	10257	56.75005864	5.864e-05
370	10335	57.00019704	0.00019704
370	10368	57.25005864	5.864e-05
370	10401	57.50005864	5.864e-05
370	10434	57.75005864	5.864e-05
370	10512	58.00019704	0.00019704
370	10545	58.25005864	5.864e-05
370	10578	58.50005864	5.864e-05
370	10611	58.75005864	5.864e-05
370	10689	59.00019704	0.00019704
370	10722	59.25005864	5.864e-05
370	10755	59.50005864	5.864e-05
370	10788	59.75005864	5.864e-05
371	1453	12.00005864	0
371	1514	12.25005864	1
371	1547	12.50005864	2
371	1580	12.75005864	3
371	1660	13.00019704	4
371	1693	13.25005864	5
371	1726	13.50005864	6
371	1759	13.75005864	7
371	1839	14.00019704	8
371	1872	14.25005864	9
371	1905	14.50005864	10
371	1938	14.75005864	11
371	2018	15.00019704	12
371	2061	15.25005864	13
371	2094	15.50005864	14
371	2127	15.75005864	15
371	2207	16.00019704	16
371	2240	16.25005864	17
371	2273	16.50005864	18
371	2306	16.75005864	19
371	2386	17.00019704	20
371	2419	17.25005864	21
371	2452	17.50005864	22
371	2485	17.75005864	23
371	2565	18.00019704	24
371	2598	18.25005864	25
371	2631	18.50005864	26
371	2664	18.75005864	27
371	2744	19.00019704	28
371	2777	19.25005864	29
371	2810	19.50005864	30
371	2843	19.75005864	31
371	2924	20.00019704	32
371	3065	20.25005864	33
371	3099	20.5010586375	34
371	3132	20.7510586375	35
371	3213	21.002197035	36
371	3246	21.252058635	37
371	3280	21.5030586325	38
371	3313	21.7530586325	39
371	3394	22.00419703	40
371	3427	22.25405863	41
371	3461	22.5050586275	42
371	3494	22.7550586275	43
371	3575	23.006197025	44
371	3608	23.256058625	45
371	3642	23.5070586225	46
371	3675	23.7570586225	47
371	3756	24.00819702	48
371	3789	24.25805862	49
371	3823	24.5090586175	50
371	3856	24.7590586175	51
371	3937	25.010197015	52
371	3980	25.260058615	53
371	4014	25.5110586125	54
371	4047	25.7610586125	55
371	4128	26.01219701	56
371	4161	26.26205861	57
371	4195	26.5130586075	58
371	4228	26.7630586075	59
371	4331	27.264058605	61
371	4365	27.5150586025	62
371	4398	27.7650586025	63
371	4479	28.016197	64
371	4512	28.2660586	65
371	4546	28.5170585975	66
371	4649	29.018196995	68
371	4682	29.268058595	69
371	4716	29.5190585925	70
371	4749	29.7690585925	71
371	4830	30.02019699	72
371	4971	30.27005859	73
371	5005	30.5210585875	74
371	5038	30.7710585875	75
371	5119	31.022196985	76
371	5152	31.272058585	77
371	5186	31.5230585825	78
371	5219	31.7730585825	79
371	5300	32.02419698	80
371	5333	32.27405858	81
371	5367	32.5250585775	82
371	5400	32.7750585775	83
371	5481	33.026196975	84
371	5537	33.5270585725	86
371	5570	33.7770585725	87
371	5651	34.02819697	88
371	5684	34.27805857	89
371	5718	34.5290585675	90
371	5751	34.7790585675	91
371	5832	35.030196965	92
371	5875	35.280058565	93
371	5909	35.5310585625	94
371	5942	35.7810585625	95
371	6023	36.03219696	96
371	6056	36.28205856	97
371	6090	36.5330585575	98
371	6123	36.7830585575	99
371	6204	37.034196955	100
371	6237	37.284058555	101
371	6271	37.5350585525	102
371	6304	37.7850585525	103
371	6385	38.03619695	104
371	6418	38.28605855	105
371	6452	38.5370585475	106
371	6485	38.7870585475	107
371	6566	39.038196945	108
371	6599	39.288058545	109
371	6633	39.5390585425	110
371	6666	39.7890585425	111
371	6854	40.04019694	112
371	7012	40.29005854	113
371	7045	40.54005854	114
371	7078	40.79005854	115
371	7203	41.04019694	116
371	7236	41.29005854	117
371	7269	41.54005854	118
371	7302	41.79005854	119
371	7382	42.04019694	120
371	7415	42.29005854	121
371	7448	42.54005854	122
371	7550	43.04019694	124
371	7583	43.29005854	125
371	7616	43.54005854	126
371	7649	43.79005854	127
371	7751	44.29005854	129
371	7784	44.54005854	130
371	7817	44.79005854	131
371	7969	45.00019704	132
371	8002	45.25005864	133
371	8035	45.50005864	134
371	8068	45.75005864	135
371	8200	46.00019704	136
371	8233	46.25005864	137
371	8266	46.50005864	138
371	8299	46.75005864	139
371	8377	47.00019704	140
371	8410	47.25005864	141
371	8443	47.50005864	142
371	8476	47.75005864	143
371	8554	48.00019704	144
371	8587	48.25005864	145
371	8620	48.50005864	146
371	8653	48.75005864	147
371	8731	49.00019704	148
371	8764	49.25005864	149
371	8797	49.50005864	150
371	8830	49.75005864	151
371	8964	50.00019704	152
371	9075	50.25005864	153
371	9108	50.50005864	154
371	9141	50.75005864	155
371	9273	51.00019704	156
371	9306	51.25005864	157
371	9339	51.50005864	158
371	9372	51.75005864	159
371	9450	52.00019704	160
371	9483	52.25005864	161
371	9516	52.50005864	162
371	9549	52.75005864	163
371	9627	53.00019704	164
371	9660	53.25005864	165
371	9693	53.50005864	166
371	9726	53.75005864	167
371	9804	54.00019704	168
371	9837	54.25005864	169
371	9870	54.50005864	170
371	9903	54.75005864	171
371	9981	55.00019704	172
371	10014	55.25005864	173
371	10047	55.50005864	174
371	10080	55.75005864	175
371	10158	56.00019704	176
371	10191	56.25005864	177
371	10224	56.50005864	178
371	10257	56.75005864	179
371	10335	57.00019704	180
371	10368	57.25005864	181
371	10401	57.50005864	182
371	10434	57.75005864	183
371	10512	58.00019704	184
371	10545	58.25005864	185
371	10578	58.50005864	186
371	10611	58.75005864	187
371	10689	59.00019704	188
371	10722	59.25005864	189
371	10755	59.50005864	190
371	10788	59.75005864	191
372	0	0	1e-07
372	2845	20	1e-07
372	3067	20.5	0.0010000975
372	3149	21	0.002000095
372	3248	21.5	0.0030000925
372	3330	22	0.00400009
372	3429	22.5	0.0050000875
372	3511	23	0.006000085
372	3610	23.5	0.0070000825
372	3692	24	0.00800008
372	3791	24.5	0.0090000775
372	3873	25	0.010000075
372	3982	25.5	0.0110000725
372	4064	26	0.01200007
372	4163	26.5	0.0130000675
372	4245	27	0.014000065
372	4333	27.5	0.0150000625
372	4415	28	0.01600006
372	4514	28.5	0.0170000575
372	4585	29	0.018000055
372	4684	29.5	0.0190000525
372	4766	30	0.02000005
372	4973	30.5	0.0210000475
372	5055	31	0.022000045
372	5154	31.5	0.0230000425
372	5236	32	0.02400004
372	5335	32.5	0.0250000375
372	5417	33	0.026000035
372	5505	33.5	0.0270000325
372	5587	34	0.02800003
372	5686	34.5	0.0290000275
372	5768	35	0.030000025
372	5877	35.5	0.0310000225
372	5959	36	0.03200002
372	6058	36.5	0.0330000175
372	6140	37	0.034000015
372	6239	37.5	0.0350000125
372	6321	38	0.03600001
372	6420	38.5	0.0370000075
372	6502	39	0.038000005
372	6601	39.5	0.0390000025
372	6685	40	0.04
373	0	0	0
373	2845	20	0
373	3067	20.5	0.002
373	3149	21	0.004
373	3248	21.5	0.006
373	3330	22	0.008
373	3429	22.5	0.01
373	3511	23	0.012
373	3610	23.5	0.014
373	3692	24	0.016
373	3791	24.5	0.018
373	3873	25	0.02
373	3982	25.5	0.022
373	4064	26	0.024
373	4163	26.5	0.026
373	4245	27	0.028
373	4333	27.5	0.03
373	4415	28	0.032
373	4514	28.5	0.034
373	4585	29	0.036
373	4684	29.5	0.038
373	4766	30	0.04
373	4973	30.5	0.042
373	5055	31	0.044
373	5154	31.5	0.046
373	5236	32	0.048
373	5335	32.5	0.05
373	5417	33	0.052
373	5505	33.5	0.054
373	5587	34	0.056
373	5686	34.5	0.058
373	5768	35	0.06
373	5877	35.5	0.062
373	5959	36	0.064
373	6058	36.5	0.066
373	6140	37	0.068
373	6239	37.5	0.07
373	6321	38	0.072
373	6420	38.5	0.074
373	6502	39	0.076
373	6601	39.5	0.078
373	6685	40	0.08

