version 3
run StrongLinear-0-20260330-15:51:32-14768
attr configname StrongLinear
attr datetime 20260330-15:51:32
attr datetimef 20260330-155132
attr experiment StrongLinear
attr inifile omnetpp.ini
attr iterationvars ""
attr iterationvarsd ""
attr iterationvarsf ""
attr measurement ""
attr network dissertationsim.simulations.linkdegradation.LinkDegradation
attr processid 14768
attr repetition 0
attr replication #0
attr resultdir results
attr runnumber 0
attr seedset 0
config image-path ../../../inet4.5/images
config description "Stronger linear delay and PER increase on r2-r3 from 20s to 40s, followed by hard failure at 45s"
config **.degradationController.profile "\"strongLinear\""
config **.degradationController.targetDelay 40ms
config **.degradationController.targetPacketErrorRate 0.08
config network dissertationsim.simulations.linkdegradation.LinkDegradation
config sim-time-limit 60s
config output-scalar-file ../../results/linkdegradation/eval/StrongLinear-0.sca
config output-vector-file ../../results/linkdegradation/eval/StrongLinear-0.vec
config eventlog-file ../../results/linkdegradation/debug/StrongLinear-0.elog
config record-eventlog false
config **.ospf.ospfConfig "xmldoc(\"ASConfig.xml\")"
config **.hostA.numApps 2
config **.hostB.numApps 2
config **.hostA.app[0].typename UdpBasicApp
config **.hostA.app[0].destAddresses "\"hostB\""
config **.hostA.app[0].destPort 5000
config **.hostA.app[0].messageLength 512B
config **.hostA.app[0].sendInterval 1s
config **.hostA.app[0].startTime 10s
config **.hostA.app[1].typename UdpBasicApp
config **.hostA.app[1].destAddresses "\"hostB\""
config **.hostA.app[1].destPort 5001
config **.hostA.app[1].messageLength 128B
config **.hostA.app[1].sendInterval 250ms
config **.hostA.app[1].startTime 12s
config **.hostB.app[0].typename UdpSink
config **.hostB.app[0].localPort 5000
config **.hostB.app[1].typename UdpSink
config **.hostB.app[1].localPort 5001
config **.degradationController.firstInterfaceModule "\"^.r2.eth[1]\""
config **.degradationController.secondInterfaceModule "\"^.r3.eth[0]\""
config **.degradationController.startTime 20s
config **.degradationController.endTime 40s
config **.degradationController.updateInterval 0.5s
config **.degradationController.profile "\"mildLinear\""
config **.degradationController.targetDelay 15ms
config **.degradationController.targetPacketErrorRate 0.03
config **.scenarioManager.script "xml(         \"<script>\\n\" +         \"<at t='45s'><disconnect src-module='r2' src-gate='ethg$o[1]'/></at>\\n\" +         \"<at t='45s'><disconnect src-module='r3' src-gate='ethg$o[0]'/></at>\\n\" +         \"</script>\")"
config **.hostA.app[*].packetSent.result-recording-modes count
config **.hostB.app[*].packetReceived.result-recording-modes count
config **.hostB.app[*].throughput.result-recording-modes vector
config **.ipv4.ip.packetDropNoRouteFound.result-recording-modes count
config **.ipv4.ip.packetDropInterfaceDown.result-recording-modes count

par LinkDegradation.hostA.ethg$o[0].channel typename "\"dissertationsim.simulations.linkdegradation.LinkDegradation.Eth100M\""
par LinkDegradation.hostA.ethg$o[0].channel disabled false
attr mutable ""
par LinkDegradation.hostA.ethg$o[0].channel delay 1e-07s
attr mutable ""
attr unit s
par LinkDegradation.hostA.ethg$o[0].channel datarate 1e+08bps
attr mutable ""
attr unit bps
par LinkDegradation.hostA.ethg$o[0].channel ber 0
attr mutable ""
par LinkDegradation.hostA.ethg$o[0].channel per 0
attr mutable ""
par LinkDegradation.hostA.ethg$o[0].channel displayAsTooltip false
par LinkDegradation.hostA.ethg$o[0].channel thruputDisplayFormat "\"#N\""
par LinkDegradation.r1.ethg$o[0].channel typename "\"dissertationsim.simulations.linkdegradation.LinkDegradation.Eth100M\""
par LinkDegradation.r1.ethg$o[0].channel disabled false
attr mutable ""
par LinkDegradation.r1.ethg$o[0].channel delay 1e-07s
attr mutable ""
attr unit s
par LinkDegradation.r1.ethg$o[0].channel datarate 1e+08bps
attr mutable ""
attr unit bps
par LinkDegradation.r1.ethg$o[0].channel ber 0
attr mutable ""
par LinkDegradation.r1.ethg$o[0].channel per 0
attr mutable ""
par LinkDegradation.r1.ethg$o[0].channel displayAsTooltip false
par LinkDegradation.r1.ethg$o[0].channel thruputDisplayFormat "\"#N\""
par LinkDegradation.r1.ethg$o[1].channel typename "\"dissertationsim.simulations.linkdegradation.LinkDegradation.Eth100M\""
par LinkDegradation.r1.ethg$o[1].channel disabled false
attr mutable ""
par LinkDegradation.r1.ethg$o[1].channel delay 1e-07s
attr mutable ""
attr unit s
par LinkDegradation.r1.ethg$o[1].channel datarate 1e+08bps
attr mutable ""
attr unit bps
par LinkDegradation.r1.ethg$o[1].channel ber 0
attr mutable ""
par LinkDegradation.r1.ethg$o[1].channel per 0
attr mutable ""
par LinkDegradation.r1.ethg$o[1].channel displayAsTooltip false
par LinkDegradation.r1.ethg$o[1].channel thruputDisplayFormat "\"#N\""
par LinkDegradation.r2.ethg$o[0].channel typename "\"dissertationsim.simulations.linkdegradation.LinkDegradation.Eth100M\""
par LinkDegradation.r2.ethg$o[0].channel disabled false
attr mutable ""
par LinkDegradation.r2.ethg$o[0].channel delay 1e-07s
attr mutable ""
attr unit s
par LinkDegradation.r2.ethg$o[0].channel datarate 1e+08bps
attr mutable ""
attr unit bps
par LinkDegradation.r2.ethg$o[0].channel ber 0
attr mutable ""
par LinkDegradation.r2.ethg$o[0].channel per 0
attr mutable ""
par LinkDegradation.r2.ethg$o[0].channel displayAsTooltip false
par LinkDegradation.r2.ethg$o[0].channel thruputDisplayFormat "\"#N\""
par LinkDegradation.r1.ethg$o[2].channel typename "\"dissertationsim.simulations.linkdegradation.LinkDegradation.Eth100M\""
par LinkDegradation.r1.ethg$o[2].channel disabled false
attr mutable ""
par LinkDegradation.r1.ethg$o[2].channel delay 1e-07s
attr mutable ""
attr unit s
par LinkDegradation.r1.ethg$o[2].channel datarate 1e+08bps
attr mutable ""
attr unit bps
par LinkDegradation.r1.ethg$o[2].channel ber 0
attr mutable ""
par LinkDegradation.r1.ethg$o[2].channel per 0
attr mutable ""
par LinkDegradation.r1.ethg$o[2].channel displayAsTooltip false
par LinkDegradation.r1.ethg$o[2].channel thruputDisplayFormat "\"#N\""
par LinkDegradation.r4.ethg$o[0].channel typename "\"dissertationsim.simulations.linkdegradation.LinkDegradation.Eth100M\""
par LinkDegradation.r4.ethg$o[0].channel disabled false
attr mutable ""
par LinkDegradation.r4.ethg$o[0].channel delay 1e-07s
attr mutable ""
attr unit s
par LinkDegradation.r4.ethg$o[0].channel datarate 1e+08bps
attr mutable ""
attr unit bps
par LinkDegradation.r4.ethg$o[0].channel ber 0
attr mutable ""
par LinkDegradation.r4.ethg$o[0].channel per 0
attr mutable ""
par LinkDegradation.r4.ethg$o[0].channel displayAsTooltip false
par LinkDegradation.r4.ethg$o[0].channel thruputDisplayFormat "\"#N\""
par LinkDegradation.r4.ethg$o[1].channel typename "\"dissertationsim.simulations.linkdegradation.LinkDegradation.Eth100M\""
par LinkDegradation.r4.ethg$o[1].channel disabled false
attr mutable ""
par LinkDegradation.r4.ethg$o[1].channel delay 1e-07s
attr mutable ""
attr unit s
par LinkDegradation.r4.ethg$o[1].channel datarate 1e+08bps
attr mutable ""
attr unit bps
par LinkDegradation.r4.ethg$o[1].channel ber 0
attr mutable ""
par LinkDegradation.r4.ethg$o[1].channel per 0
attr mutable ""
par LinkDegradation.r4.ethg$o[1].channel displayAsTooltip false
par LinkDegradation.r4.ethg$o[1].channel thruputDisplayFormat "\"#N\""
par LinkDegradation.r3.ethg$o[1].channel typename "\"dissertationsim.simulations.linkdegradation.LinkDegradation.Eth100M\""
par LinkDegradation.r3.ethg$o[1].channel disabled false
attr mutable ""
par LinkDegradation.r3.ethg$o[1].channel delay 1e-07s
attr mutable ""
attr unit s
par LinkDegradation.r3.ethg$o[1].channel datarate 1e+08bps
attr mutable ""
attr unit bps
par LinkDegradation.r3.ethg$o[1].channel ber 0
attr mutable ""
par LinkDegradation.r3.ethg$o[1].channel per 0
attr mutable ""
par LinkDegradation.r3.ethg$o[1].channel displayAsTooltip false
par LinkDegradation.r3.ethg$o[1].channel thruputDisplayFormat "\"#N\""
par LinkDegradation.r3.ethg$o[2].channel typename "\"dissertationsim.simulations.linkdegradation.LinkDegradation.Eth100M\""
par LinkDegradation.r3.ethg$o[2].channel disabled false
attr mutable ""
par LinkDegradation.r3.ethg$o[2].channel delay 1e-07s
attr mutable ""
attr unit s
par LinkDegradation.r3.ethg$o[2].channel datarate 1e+08bps
attr mutable ""
attr unit bps
par LinkDegradation.r3.ethg$o[2].channel ber 0
attr mutable ""
par LinkDegradation.r3.ethg$o[2].channel per 0
attr mutable ""
par LinkDegradation.r3.ethg$o[2].channel displayAsTooltip false
par LinkDegradation.r3.ethg$o[2].channel thruputDisplayFormat "\"#N\""
par LinkDegradation.hostB.ethg$o[0].channel typename "\"dissertationsim.simulations.linkdegradation.LinkDegradation.Eth100M\""
par LinkDegradation.hostB.ethg$o[0].channel disabled false
attr mutable ""
par LinkDegradation.hostB.ethg$o[0].channel delay 1e-07s
attr mutable ""
attr unit s
par LinkDegradation.hostB.ethg$o[0].channel datarate 1e+08bps
attr mutable ""
attr unit bps
par LinkDegradation.hostB.ethg$o[0].channel ber 0
attr mutable ""
par LinkDegradation.hostB.ethg$o[0].channel per 0
attr mutable ""
par LinkDegradation.hostB.ethg$o[0].channel displayAsTooltip false
par LinkDegradation.hostB.ethg$o[0].channel thruputDisplayFormat "\"#N\""
par LinkDegradation.hostA.ethg$i[0].channel typename "\"ned.IdealChannel\""
par LinkDegradation.hostA.eth[0].phys$o.channel typename "\"ned.IdealChannel\""
par LinkDegradation.hostA.interfaceTable typename "\"inet.networklayer.common.InterfaceTable\""
par LinkDegradation.hostA.interfaceTable displayAddresses false
par LinkDegradation.hostA.cb typename "\"inet.common.MessageDispatcher\""
par LinkDegradation.hostA.cb displayStringTextFormat "\"processed %p pk (%l)\""
par LinkDegradation.hostA.cb forwardServiceRegistration true
par LinkDegradation.hostA.cb forwardProtocolRegistration true
par LinkDegradation.hostA.bl typename "\"inet.common.MessageDispatcher\""
par LinkDegradation.hostA.bl displayStringTextFormat "\"processed %p pk (%l)\""
par LinkDegradation.hostA.bl forwardServiceRegistration true
par LinkDegradation.hostA.bl forwardProtocolRegistration true
par LinkDegradation.hostA.ethernet typename "\"inet.linklayer.ethernet.basic.EthernetEncapsulation\""
par LinkDegradation.hostA.ethernet registerProtocol true
par LinkDegradation.hostA.ethernet interfaceTableModule "\"LinkDegradation.hostA.interfaceTable\""
par LinkDegradation.hostA.ethernet fcsMode "\"declared\""
attr enum declared,computed
par LinkDegradation.hostA.ethernet stopOperationExtraTime -1s
attr unit s
par LinkDegradation.hostA.ethernet stopOperationTimeout 2s
attr unit s
scalar LinkDegradation.hostA.ethernet decapPk:count 7
attr interpolationmode none
attr recordingmode count
attr source decapPk
attr title "packets decapsulated, count"
scalar LinkDegradation.hostA.ethernet decapPk:sum(packetBytes) 430
attr interpolationmode none
attr recordingmode sum(packetBytes)
attr source decapPk
attr title "packets decapsulated, sum(packetBytes)"
scalar LinkDegradation.hostA.ethernet encapPk:count 245
attr interpolationmode none
attr recordingmode count
attr source encapPk
attr title "packets encapsulated, count"
scalar LinkDegradation.hostA.ethernet encapPk:sum(packetBytes) 57676
attr interpolationmode none
attr recordingmode sum(packetBytes)
attr source encapPk
attr title "packets encapsulated, sum(packetBytes)"
scalar LinkDegradation.hostA.ethernet pauseSent:count 0
attr recordingmode count
attr title "pause sent, count"
scalar LinkDegradation.hostA.ethernet pauseSent:sum 0
attr recordingmode sum
attr title "pause sent, sum"
par LinkDegradation.hostA.li typename "\"inet.common.MessageDispatcher\""
par LinkDegradation.hostA.li displayStringTextFormat "\"processed %p pk (%l)\""
par LinkDegradation.hostA.li forwardServiceRegistration true
par LinkDegradation.hostA.li forwardProtocolRegistration true
par LinkDegradation.hostA.lo[0].upperLayerIn.channel typename "\"ned.IdealChannel\""
par LinkDegradation.hostA.lo[0].lo.upperLayerOut.channel typename "\"ned.IdealChannel\""
par LinkDegradation.hostA.lo[0].lo typename "\"inet.linklayer.loopback.Loopback\""
par LinkDegradation.hostA.lo[0].lo interfaceTableModule "\"LinkDegradation.hostA.interfaceTable\""
par LinkDegradation.hostA.lo[0].lo mtu 4470B
attr unit B
scalar LinkDegradation.hostA.lo[0].lo rcvdPkFromHl:count 0
attr interpolationmode none
attr recordingmode count
attr source packetReceivedFromUpper
attr title "packets received from higher layer, count"
scalar LinkDegradation.hostA.lo[0].lo rcvdPkFromHl:sum(packetBytes) 0
attr interpolationmode none
attr recordingmode sum(packetBytes)
attr source packetReceivedFromUpper
attr title "packets received from higher layer, sum(packetBytes)"
scalar LinkDegradation.hostA.lo[0].lo passedUpPk:count 0
attr interpolationmode none
attr recordingmode count
attr source packetSentToUpper
attr title "packets passed to higher layer, count"
scalar LinkDegradation.hostA.lo[0].lo passedUpPk:sum(packetBytes) 0
attr interpolationmode none
attr recordingmode sum(packetBytes)
attr source packetSentToUpper
attr title "packets passed to higher layer, sum(packetBytes)"
par LinkDegradation.hostA.lo[0] typename "\"inet.linklayer.loopback.LoopbackInterface\""
par LinkDegradation.hostA.lo[0] displayStringTextFormat "\"%a (%i)\\n%m\""
par LinkDegradation.hostA.lo[0] recordPcap false
par LinkDegradation.hostA.lo[0] numPcapRecorders 0
par LinkDegradation.hostA.lo[0] interfaceTableModule "\"LinkDegradation.hostA.interfaceTable\""
scalar LinkDegradation.hostA.lo[0] packetDropInterfaceDown:count 0
attr interpolationmode none
attr recordingmode count
attr source packetDropReasonIsInterfaceDown(packetDropped)
attr title "packet drops: interface down, count"
scalar LinkDegradation.hostA.lo[0] packetDropInterfaceDown:sum(packetBytes) 0
attr interpolationmode none
attr recordingmode sum(packetBytes)
attr source packetDropReasonIsInterfaceDown(packetDropped)
attr title "packet drops: interface down, sum(packetBytes)"
scalar LinkDegradation.hostA.lo[0] packetDropNoCarrier:count 0
attr interpolationmode none
attr recordingmode count
attr source packetDropReasonIsNoCarrier(packetDropped)
attr title "packet drops: no carrier, count"
scalar LinkDegradation.hostA.lo[0] packetDropNoCarrier:sum(packetBytes) 0
attr interpolationmode none
attr recordingmode sum(packetBytes)
attr source packetDropReasonIsNoCarrier(packetDropped)
attr title "packet drops: no carrier, sum(packetBytes)"
par LinkDegradation.hostA.eth[0].mac.phys$o.channel typename "\"ned.IdealChannel\""
par LinkDegradation.hostA.eth[0].phys$i.channel typename "\"ned.IdealChannel\""
par LinkDegradation.hostA.eth[0].upperLayerIn.channel typename "\"ned.IdealChannel\""
par LinkDegradation.hostA.eth[0].mac.upperLayerOut.channel typename "\"ned.IdealChannel\""
par LinkDegradation.hostA.eth[0].queue typename "\"inet.linklayer.ethernet.common.EthernetQueue\""
par LinkDegradation.hostA.eth[0].queue displayStringTextFormat "\"contains %p pk (%l) pushed %u\\npulled %o removed %r dropped %d\""
par LinkDegradation.hostA.eth[0].queue packetCapacity 1000
par LinkDegradation.hostA.eth[0].queue dataCapacity -1b
attr unit b
par LinkDegradation.hostA.eth[0].queue dropperClass "\"inet::queueing::PacketAtCollectionEndDropper\""
par LinkDegradation.hostA.eth[0].queue comparatorClass "\"inet::EthernetFrameTypeComparator\""
par LinkDegradation.hostA.eth[0].queue bufferModule "\"\""
scalar LinkDegradation.hostA.eth[0].queue queueLength:last 1
attr autoWarmupFilter false
attr interpolationmode sample-hold
attr recordingmode last
attr source "warmup(atomic(constant0(packetPushEnded) + count(packetPushStarted) - count(packetPulled) - count(packetRemoved) - count(packetDropped)))"
attr title "queue length, last"
attr unit pk
scalar LinkDegradation.hostA.eth[0].queue queueLength:max 1
attr autoWarmupFilter false
attr interpolationmode sample-hold
attr recordingmode max
attr source "warmup(atomic(constant0(packetPushEnded) + count(packetPushStarted) - count(packetPulled) - count(packetRemoved) - count(packetDropped)))"
attr title "queue length, max"
attr unit pk
scalar LinkDegradation.hostA.eth[0].queue queueLength:timeavg 3.648e-05
attr autoWarmupFilter false
attr interpolationmode sample-hold
attr recordingmode timeavg
attr source "warmup(atomic(constant0(packetPushEnded) + count(packetPushStarted) - count(packetPulled) - count(packetRemoved) - count(packetDropped)))"
attr title "queue length, timeavg"
attr unit pk
scalar LinkDegradation.hostA.eth[0].queue queueBitLength:last 1392
attr autoWarmupFilter false
attr interpolationmode sample-hold
attr recordingmode last
attr source "warmup(atomic(constant0(packetPushEnded) + sum(packetLength(packetPushStarted)) - sum(packetLength(packetPulled)) - sum(packetLength(packetRemoved)) - sum(packetLength(packetDropped))))"
attr title "queue bit length, last"
attr unit b
scalar LinkDegradation.hostA.eth[0].queue queueBitLength:max 4464
attr autoWarmupFilter false
attr interpolationmode sample-hold
attr recordingmode max
attr source "warmup(atomic(constant0(packetPushEnded) + sum(packetLength(packetPushStarted)) - sum(packetLength(packetPulled)) - sum(packetLength(packetRemoved)) - sum(packetLength(packetDropped))))"
attr title "queue bit length, max"
attr unit b
scalar LinkDegradation.hostA.eth[0].queue queueBitLength:timeavg 0.051574784
attr autoWarmupFilter false
attr interpolationmode sample-hold
attr recordingmode timeavg
attr source "warmup(atomic(constant0(packetPushEnded) + sum(packetLength(packetPushStarted)) - sum(packetLength(packetPulled)) - sum(packetLength(packetRemoved)) - sum(packetLength(packetDropped))))"
attr title "queue bit length, timeavg"
attr unit b
statistic LinkDegradation.hostA.eth[0].queue queueingTime:histogram
field count 244
field mean 8.9704918032787e-06
field stddev 1.8268541530009e-05
field min 0
field max 4.624e-05
field sum 0.0021888
field sqrsum 1.007333376e-07
attr interpolationmode none
attr recordingmode histogram
attr source queueingTime(packetPulled)
attr title "queueing times"
attr unit s
bin	-inf	0
bin	0	196
bin	1e-06	0
bin	2e-06	0
bin	3e-06	0
bin	4e-06	0
bin	5e-06	0
bin	6e-06	0
bin	7e-06	0
bin	8e-06	0
bin	9e-06	0
bin	1e-05	0
bin	1.1e-05	0
bin	1.2e-05	0
bin	1.3e-05	0
bin	1.4e-05	0
bin	1.5e-05	1
bin	1.6e-05	0
bin	1.7e-05	0
bin	1.8e-05	0
bin	1.9e-05	0
bin	2e-05	0
bin	2.1e-05	0
bin	2.2e-05	0
bin	2.3e-05	0
bin	2.4e-05	0
bin	2.5e-05	0
bin	2.6e-05	0
bin	2.7e-05	0
bin	2.8e-05	0
bin	2.9e-05	0
bin	3e-05	0
bin	3.1e-05	0
bin	3.2e-05	0
bin	3.3e-05	0
bin	3.4e-05	0
bin	3.5e-05	0
bin	3.6e-05	0
bin	3.7e-05	0
bin	3.8e-05	0
bin	3.9e-05	0
bin	4e-05	0
bin	4.1e-05	0
bin	4.2e-05	0
bin	4.3e-05	0
bin	4.4e-05	0
bin	4.5e-05	0
bin	4.6e-05	47
bin	4.7e-05	0
bin	4.8e-05	0
bin	4.9e-05	0
bin	5e-05	0
bin	5.1e-05	0
bin	5.2e-05	0
bin	5.3e-05	0
bin	5.4e-05	0
bin	5.5e-05	0
bin	5.6e-05	0
bin	5.7e-05	0
bin	5.8e-05	0
scalar LinkDegradation.hostA.eth[0].queue outgoingPackets:count 244
attr recordingmode count
attr source packetPulled
attr title "outgoing packets, count"
attr unit pk
scalar LinkDegradation.hostA.eth[0].queue outgoingPacketLengths:sum 495296
attr interpolationmode none
attr recordingmode sum
attr source packetLength(packetPulled)
attr title "outgoing packet lengths, sum"
attr unit b
statistic LinkDegradation.hostA.eth[0].queue outgoingPacketLengths:histogram
field count 244
field mean 2029.9016393443
field stddev 1255.5339979128
field min 368
field max 4464
field sum 495296
field sqrsum 1388459008
attr interpolationmode none
attr recordingmode histogram
attr source packetLength(packetPulled)
attr title "outgoing packet lengths"
attr unit b
bin	-inf	0
bin	0	0
bin	100	0
bin	200	0
bin	300	1
bin	400	0
bin	500	0
bin	600	0
bin	700	0
bin	800	0
bin	900	0
bin	1000	0
bin	1100	0
bin	1200	0
bin	1300	192
bin	1400	0
bin	1500	0
bin	1600	0
bin	1700	0
bin	1800	0
bin	1900	0
bin	2000	0
bin	2100	0
bin	2200	0
bin	2300	0
bin	2400	0
bin	2500	0
bin	2600	0
bin	2700	0
bin	2800	0
bin	2900	0
bin	3000	0
bin	3100	0
bin	3200	0
bin	3300	0
bin	3400	0
bin	3500	0
bin	3600	0
bin	3700	0
bin	3800	0
bin	3900	0
bin	4000	0
bin	4100	0
bin	4200	0
bin	4300	0
bin	4400	51
bin	4500	0
bin	4600	0
bin	4700	0
bin	4800	0
bin	4900	0
bin	5000	0
bin	5100	0
bin	5200	0
bin	5300	0
bin	5400	0
bin	5500	0
statistic LinkDegradation.hostA.eth[0].queue flowQueueingTime:histogram
field count 0
field mean -nan(ind)
field stddev nan
field min nan
field max nan
field sum 0
field sqrsum 0
attr interpolationmode none
attr recordingmode histogram
attr source queueingTime(demuxFlow(packetPulled))
attr title "flow queueing times"
attr unit s
bin	-inf	0
bin	0	0
bin	1	0
scalar LinkDegradation.hostA.eth[0].queue incomingPackets:count 245
attr recordingmode count
attr source packetPushStarted
attr title "incoming packets, count"
attr unit pk
scalar LinkDegradation.hostA.eth[0].queue incomingPacketLengths:sum 496688
attr interpolationmode none
attr recordingmode sum
attr source packetLength(packetPushStarted)
attr title "incoming packet lengths, sum"
attr unit b
statistic LinkDegradation.hostA.eth[0].queue incomingPacketLengths:histogram
field count 245
field mean 2027.2979591837
field stddev 1253.6211536673
field min 368
field max 4464
field sum 496688
field sqrsum 1390396672
attr interpolationmode none
attr recordingmode histogram
attr source packetLength(packetPushStarted)
attr title "incoming packet lengths"
attr unit b
bin	-inf	0
bin	0	0
bin	100	0
bin	200	0
bin	300	1
bin	400	0
bin	500	0
bin	600	0
bin	700	0
bin	800	0
bin	900	0
bin	1000	0
bin	1100	0
bin	1200	0
bin	1300	193
bin	1400	0
bin	1500	0
bin	1600	0
bin	1700	0
bin	1800	0
bin	1900	0
bin	2000	0
bin	2100	0
bin	2200	0
bin	2300	0
bin	2400	0
bin	2500	0
bin	2600	0
bin	2700	0
bin	2800	0
bin	2900	0
bin	3000	0
bin	3100	0
bin	3200	0
bin	3300	0
bin	3400	0
bin	3500	0
bin	3600	0
bin	3700	0
bin	3800	0
bin	3900	0
bin	4000	0
bin	4100	0
bin	4200	0
bin	4300	0
bin	4400	51
bin	4500	0
bin	4600	0
bin	4700	0
bin	4800	0
bin	4900	0
bin	5000	0
bin	5100	0
bin	5200	0
bin	5300	0
bin	5400	0
bin	5500	0
scalar LinkDegradation.hostA.eth[0].queue droppedPacketsQueueOverflow:count 0
attr interpolationmode none
attr recordingmode count
attr source packetDropReasonIsQueueOverflow(packetDropped)
attr title "dropped packets: queue overflow, count"
attr unit pk
scalar LinkDegradation.hostA.eth[0].queue droppedPacketLengthsQueueOverflow:sum 0
attr interpolationmode none
attr recordingmode sum
attr source packetLength(packetDropReasonIsQueueOverflow(packetDropped))
attr title "dropped packet lengths: queue overflow, sum"
attr unit b
par LinkDegradation.hostA.eth[0].mac typename "\"inet.linklayer.ethernet.basic.EthernetMac\""
par LinkDegradation.hostA.eth[0].mac interfaceTableModule "\"LinkDegradation.hostA.interfaceTable\""
par LinkDegradation.hostA.eth[0].mac displayStringTextFormat "\"rate: %b\\nsent: %s, rcvd: %r\\nqueue: %q, drop: %d\""
par LinkDegradation.hostA.eth[0].mac sendRawBytes false
par LinkDegradation.hostA.eth[0].mac promiscuous false
par LinkDegradation.hostA.eth[0].mac duplexMode true
par LinkDegradation.hostA.eth[0].mac mtu 1500B
attr unit B
par LinkDegradation.hostA.eth[0].mac fcsMode "\"declared\""
attr enum declared,computed
par LinkDegradation.hostA.eth[0].mac stopOperationExtraTime -1s
attr unit s
par LinkDegradation.hostA.eth[0].mac stopOperationTimeout 2s
attr unit s
scalar LinkDegradation.hostA.eth[0].mac "simulated time" 60
scalar LinkDegradation.hostA.eth[0].mac full-duplex 1
scalar LinkDegradation.hostA.eth[0].mac "frames/sec sent" 4.05
scalar LinkDegradation.hostA.eth[0].mac "frames/sec rcvd" 0.11666666666667
scalar LinkDegradation.hostA.eth[0].mac "bits/sec sent" 8182.9333333333
scalar LinkDegradation.hostA.eth[0].mac "bits/sec rcvd" 74.133333333333
scalar LinkDegradation.hostA.eth[0].mac "rx channel idle (%)" 99.9999184
scalar LinkDegradation.hostA.eth[0].mac "rx channel utilization (%)" 8.16e-05
scalar LinkDegradation.hostA.eth[0].mac txPk:count 243
attr interpolationmode none
attr recordingmode count
attr source packetSentToLower
attr title "packets transmitted, count"
scalar LinkDegradation.hostA.eth[0].mac txPk:sum(packetBytes) 61372
attr interpolationmode none
attr recordingmode sum(packetBytes)
attr source packetSentToLower
attr title "packets transmitted, sum(packetBytes)"
scalar LinkDegradation.hostA.eth[0].mac packetReceivedFromUpper:count 244
attr interpolationmode none
attr recordingmode count
attr source packetReceivedFromUpper
attr title "packet bytes from higher layer, count"
scalar LinkDegradation.hostA.eth[0].mac packetReceivedFromUpper:sum(packetBytes) 61912
attr interpolationmode none
attr recordingmode sum(packetBytes)
attr source packetReceivedFromUpper
attr title "packet bytes from higher layer, sum(packetBytes)"
scalar LinkDegradation.hostA.eth[0].mac passedUpPk:count 7
attr interpolationmode none
attr recordingmode count
attr source packetSentToUpper
attr title "packets passed to higher layer, count"
scalar LinkDegradation.hostA.eth[0].mac passedUpPk:sum(packetBytes) 556
attr interpolationmode none
attr recordingmode sum(packetBytes)
attr source packetSentToUpper
attr title "packets passed to higher layer, sum(packetBytes)"
scalar LinkDegradation.hostA.eth[0].mac packetDropIncorrectlyReceived:count 0
attr interpolationmode none
attr recordingmode count
attr source packetDropReasonIsIncorrectlyReceived(packetDropped)
attr title "packet drop: incorrectly received, count"
scalar LinkDegradation.hostA.eth[0].mac packetDropIncorrectlyReceived:sum(packetBytes) 0
attr interpolationmode none
attr recordingmode sum(packetBytes)
attr source packetDropReasonIsIncorrectlyReceived(packetDropped)
attr title "packet drop: incorrectly received, sum(packetBytes)"
scalar LinkDegradation.hostA.eth[0].mac packetDropInterfaceDown:count 0
attr interpolationmode none
attr recordingmode count
attr source packetDropReasonIsInterfaceDown(packetDropped)
attr title "packet drop: interface down, count"
scalar LinkDegradation.hostA.eth[0].mac packetDropInterfaceDown:sum(packetBytes) 0
attr interpolationmode none
attr recordingmode sum(packetBytes)
attr source packetDropReasonIsInterfaceDown(packetDropped)
attr title "packet drop: interface down, sum(packetBytes)"
scalar LinkDegradation.hostA.eth[0].mac packetDropNotAddressedToUs:count 0
attr interpolationmode none
attr recordingmode count
attr source packetDropReasonIsNotAddressedToUs(packetDropped)
attr title "packet drop: not addressed to us, count"
scalar LinkDegradation.hostA.eth[0].mac packetDropNotAddressedToUs:sum(packetBytes) 0
attr interpolationmode none
attr recordingmode sum(packetBytes)
attr source packetDropReasonIsNotAddressedToUs(packetDropped)
attr title "packet drop: not addressed to us, sum(packetBytes)"
scalar LinkDegradation.hostA.eth[0].mac rxPausePkUnits:count 0
attr interpolationmode none
attr recordingmode count
attr title "pause units received, count"
scalar LinkDegradation.hostA.eth[0].mac rxPausePkUnits:sum 0
attr interpolationmode none
attr recordingmode sum
attr title "pause units received, sum"
scalar LinkDegradation.hostA.eth[0].mac txPausePkUnits:count 0
attr interpolationmode none
attr recordingmode count
attr title "pause units sent, count"
scalar LinkDegradation.hostA.eth[0].mac txPausePkUnits:sum 0
attr interpolationmode none
attr recordingmode sum
attr title "pause units sent, sum"
scalar LinkDegradation.hostA.eth[0].mac rxPkOk:count 7
attr interpolationmode none
attr recordingmode count
attr source rxPkOk
attr title "packets received OK, count"
scalar LinkDegradation.hostA.eth[0].mac rxPkOk:sum(packetBytes) 556
attr interpolationmode none
attr recordingmode sum(packetBytes)
attr source rxPkOk
attr title "packets received OK, sum(packetBytes)"
par LinkDegradation.hostA.eth[0] typename "\"inet.linklayer.ethernet.EthernetInterface\""
par LinkDegradation.hostA.eth[0] displayStringTextFormat "\"%a (%i)\\n%m\""
par LinkDegradation.hostA.eth[0] recordPcap false
par LinkDegradation.hostA.eth[0] numPcapRecorders 0
par LinkDegradation.hostA.eth[0] interfaceTableModule "\"LinkDegradation.hostA.interfaceTable\""
par LinkDegradation.hostA.eth[0] protocol "\"ethernetmac\""
par LinkDegradation.hostA.eth[0] address "\"0A-AA-00-00-00-01\""
attr mutable ""
par LinkDegradation.hostA.eth[0] duplexMode true
par LinkDegradation.hostA.eth[0] csmacdSupport false
par LinkDegradation.hostA.eth[0] bitrate 0bps
attr unit bps
par LinkDegradation.hostA.eth[0] fcsMode "\"declared\""
attr enum declared,computed
scalar LinkDegradation.hostA.eth[0] packetDropInterfaceDown:count 0
attr interpolationmode none
attr recordingmode count
attr source packetDropReasonIsInterfaceDown(packetDropped)
attr title "packet drops: interface down, count"
scalar LinkDegradation.hostA.eth[0] packetDropInterfaceDown:sum(packetBytes) 0
attr interpolationmode none
attr recordingmode sum(packetBytes)
attr source packetDropReasonIsInterfaceDown(packetDropped)
attr title "packet drops: interface down, sum(packetBytes)"
scalar LinkDegradation.hostA.eth[0] packetDropNoCarrier:count 0
attr interpolationmode none
attr recordingmode count
attr source packetDropReasonIsNoCarrier(packetDropped)
attr title "packet drops: no carrier, count"
scalar LinkDegradation.hostA.eth[0] packetDropNoCarrier:sum(packetBytes) 0
attr interpolationmode none
attr recordingmode sum(packetBytes)
attr source packetDropReasonIsNoCarrier(packetDropped)
attr title "packet drops: no carrier, sum(packetBytes)"
par LinkDegradation.hostA.ipv4.transportIn.channel typename "\"ned.IdealChannel\""
par LinkDegradation.hostA.ipv4.up.out[0].channel typename "\"ned.IdealChannel\""
par LinkDegradation.hostA.ipv4.lp.out[2].channel typename "\"ned.IdealChannel\""
par LinkDegradation.hostA.ipv4.ifIn.channel typename "\"ned.IdealChannel\""
par LinkDegradation.hostA.ipv4.configurator typename "\"inet.networklayer.configurator.ipv4.Ipv4NodeConfigurator\""
par LinkDegradation.hostA.ipv4.configurator interfaceTableModule "\"LinkDegradation.hostA.interfaceTable\""
par LinkDegradation.hostA.ipv4.configurator routingTableModule "\"LinkDegradation.hostA.ipv4.routingTable\""
par LinkDegradation.hostA.ipv4.configurator networkConfiguratorModule "\"configurator\""
par LinkDegradation.hostA.ipv4.configurator configureRoutingTable true
par LinkDegradation.hostA.ipv4.routingTable typename "\"inet.networklayer.ipv4.Ipv4RoutingTable\""
par LinkDegradation.hostA.ipv4.routingTable interfaceTableModule "\"LinkDegradation.hostA.interfaceTable\""
par LinkDegradation.hostA.ipv4.routingTable routerId "\"auto\""
par LinkDegradation.hostA.ipv4.routingTable netmaskRoutes "\"*\""
par LinkDegradation.hostA.ipv4.routingTable forwarding false
par LinkDegradation.hostA.ipv4.routingTable multicastForwarding false
par LinkDegradation.hostA.ipv4.routingTable useAdminDist false
par LinkDegradation.hostA.ipv4.routingTable routingFile "\"\""
par LinkDegradation.hostA.ipv4.natTable typename "\"inet.networklayer.ipv4.Ipv4NatTable\""
par LinkDegradation.hostA.ipv4.natTable networkProtocolModule "\"^.ip\""
par LinkDegradation.hostA.ipv4.natTable config "<config/> at content:1"
par LinkDegradation.hostA.ipv4.up typename "\"inet.common.MessageDispatcher\""
par LinkDegradation.hostA.ipv4.up displayStringTextFormat "\"processed %p pk (%l)\""
par LinkDegradation.hostA.ipv4.up forwardServiceRegistration true
par LinkDegradation.hostA.ipv4.up forwardProtocolRegistration true
par LinkDegradation.hostA.ipv4.igmp typename "\"inet.networklayer.ipv4.Igmpv2\""
par LinkDegradation.hostA.ipv4.igmp interfaceTableModule "\"LinkDegradation.hostA.interfaceTable\""
par LinkDegradation.hostA.ipv4.igmp routingTableModule "\"LinkDegradation.hostA.ipv4.routingTable\""
par LinkDegradation.hostA.ipv4.igmp crcMode "\"declared\""
attr enum declared,computed
par LinkDegradation.hostA.ipv4.igmp enabled true
par LinkDegradation.hostA.ipv4.igmp robustnessVariable 2
par LinkDegradation.hostA.ipv4.igmp queryInterval 125s
attr unit s
par LinkDegradation.hostA.ipv4.igmp queryResponseInterval 10s
attr unit s
par LinkDegradation.hostA.ipv4.igmp groupMembershipInterval 260s
attr unit s
par LinkDegradation.hostA.ipv4.igmp otherQuerierPresentInterval 255s
attr unit s
par LinkDegradation.hostA.ipv4.igmp startupQueryInterval 31.25s
attr unit s
par LinkDegradation.hostA.ipv4.igmp startupQueryCount 2
par LinkDegradation.hostA.ipv4.igmp lastMemberQueryInterval 1s
attr unit s
par LinkDegradation.hostA.ipv4.igmp lastMemberQueryCount 2
par LinkDegradation.hostA.ipv4.igmp unsolicitedReportInterval 10s
attr unit s
par LinkDegradation.hostA.ipv4.icmp typename "\"inet.networklayer.ipv4.Icmp\""
par LinkDegradation.hostA.ipv4.icmp interfaceTableModule "\"LinkDegradation.hostA.interfaceTable\""
par LinkDegradation.hostA.ipv4.icmp routingTableModule "\"LinkDegradation.hostA.ipv4.routingTable\""
par LinkDegradation.hostA.ipv4.icmp crcMode "\"declared\""
attr enum declared,computed
attr mutable ""
par LinkDegradation.hostA.ipv4.icmp quoteLength 8B
attr mutable ""
attr unit B
par LinkDegradation.hostA.ipv4.mp typename "\"inet.common.MessageDispatcher\""
par LinkDegradation.hostA.ipv4.mp displayStringTextFormat "\"processed %p pk (%l)\""
par LinkDegradation.hostA.ipv4.mp forwardServiceRegistration true
par LinkDegradation.hostA.ipv4.mp forwardProtocolRegistration true
par LinkDegradation.hostA.ipv4.ip typename "\"inet.networklayer.ipv4.Ipv4\""
par LinkDegradation.hostA.ipv4.ip interfaceTableModule "\"LinkDegradation.hostA.interfaceTable\""
par LinkDegradation.hostA.ipv4.ip routingTableModule "\"LinkDegradation.hostA.ipv4.routingTable\""
par LinkDegradation.hostA.ipv4.ip arpModule "\"LinkDegradation.hostA.ipv4.arp\""
par LinkDegradation.hostA.ipv4.ip icmpModule "\"LinkDegradation.hostA.ipv4.icmp\""
par LinkDegradation.hostA.ipv4.ip crcMode "\"declared\""
attr enum declared,computed
par LinkDegradation.hostA.ipv4.ip timeToLive 32
par LinkDegradation.hostA.ipv4.ip multicastTimeToLive 32
par LinkDegradation.hostA.ipv4.ip fragmentTimeout 60s
attr unit s
par LinkDegradation.hostA.ipv4.ip limitedBroadcast false
par LinkDegradation.hostA.ipv4.ip directBroadcastInterfaces "\"\""
scalar LinkDegradation.hostA.ipv4.ip packetDropAddressResolutionFailed:count 0
attr interpolationmode none
attr recordingmode count
attr source packetDropReasonIsAddressResolutionFailed(packetDropped)
attr title "packet drop: address resolution failed, count"
scalar LinkDegradation.hostA.ipv4.ip packetDropAddressResolutionFailed:sum(packetBytes) 0
attr interpolationmode none
attr recordingmode sum(packetBytes)
attr source packetDropReasonIsAddressResolutionFailed(packetDropped)
attr title "packet drop: address resolution failed, sum(packetBytes)"
scalar LinkDegradation.hostA.ipv4.ip packetDropHopLimitReached:count 0
attr interpolationmode none
attr recordingmode count
attr source packetDropReasonIsHopLimitReached(packetDropped)
attr title "packet drop: hop limit reached, count"
scalar LinkDegradation.hostA.ipv4.ip packetDropHopLimitReached:sum(packetBytes) 0
attr interpolationmode none
attr recordingmode sum(packetBytes)
attr source packetDropReasonIsHopLimitReached(packetDropped)
attr title "packet drop: hop limit reached, sum(packetBytes)"
scalar LinkDegradation.hostA.ipv4.ip packetDropForwardingDisabled:count 0
attr interpolationmode none
attr recordingmode count
attr source packetDropReasonIsForwardingDisabled(packetDropped)
attr title "packet drop: forwarding disabled, count"
scalar LinkDegradation.hostA.ipv4.ip packetDropForwardingDisabled:sum(packetBytes) 0
attr interpolationmode none
attr recordingmode sum(packetBytes)
attr source packetDropReasonIsForwardingDisabled(packetDropped)
attr title "packet drop: forwarding disabled, sum(packetBytes)"
scalar LinkDegradation.hostA.ipv4.ip packetDropNoInterfaceFound:count 0
attr interpolationmode none
attr recordingmode count
attr source packetDropReasonIsNoInterfaceFound(packetDropped)
attr title "packet drop: no interface found, count"
scalar LinkDegradation.hostA.ipv4.ip packetDropNoInterfaceFound:sum(packetBytes) 0
attr interpolationmode none
attr recordingmode sum(packetBytes)
attr source packetDropReasonIsNoInterfaceFound(packetDropped)
attr title "packet drop: no interface found, sum(packetBytes)"
scalar LinkDegradation.hostA.ipv4.ip packetDropNoRouteFound:count 0
attr interpolationmode none
attr recordingmode count
attr source packetDropReasonIsNoRouteFound(packetDropped)
attr title "packet drop: no route found, count"
scalar LinkDegradation.hostA.ipv4.ip packetDropUndefined:count 0
attr interpolationmode none
attr recordingmode count
attr source packetDropReasonIsUndefined(packetDropped)
attr title "packet drop: undefined, count"
scalar LinkDegradation.hostA.ipv4.ip packetDropUndefined:sum(packetBytes) 0
attr interpolationmode none
attr recordingmode sum(packetBytes)
attr source packetDropReasonIsUndefined(packetDropped)
attr title "packet drop: undefined, sum(packetBytes)"
par LinkDegradation.hostA.ipv4.arp typename "\"inet.networklayer.arp.ipv4.Arp\""
par LinkDegradation.hostA.ipv4.arp interfaceTableModule "\"LinkDegradation.hostA.interfaceTable\""
par LinkDegradation.hostA.ipv4.arp routingTableModule "\"LinkDegradation.hostA.ipv4.routingTable\""
par LinkDegradation.hostA.ipv4.arp retryTimeout 1s
attr unit s
par LinkDegradation.hostA.ipv4.arp retryCount 3
par LinkDegradation.hostA.ipv4.arp cacheTimeout 120s
attr unit s
par LinkDegradation.hostA.ipv4.arp proxyArpInterfaces "\"\""
scalar LinkDegradation.hostA.ipv4.arp arpReplySent:count 0
attr recordingmode count
attr source arpReplySent
attr title "ARP replies sent, count"
scalar LinkDegradation.hostA.ipv4.arp arpReplySent:sum(packetBytes) 0
attr recordingmode sum(packetBytes)
attr source arpReplySent
attr title "ARP replies sent, sum(packetBytes)"
scalar LinkDegradation.hostA.ipv4.arp arpRequestSent:count 1
attr recordingmode count
attr source arpRequestSent
attr title "ARP request sent, count"
scalar LinkDegradation.hostA.ipv4.arp arpRequestSent:sum(packetBytes) 28
attr recordingmode sum(packetBytes)
attr source arpRequestSent
attr title "ARP request sent, sum(packetBytes)"
scalar LinkDegradation.hostA.ipv4.arp arpResolutionFailed:count 0
attr recordingmode count
attr title "ARP failed resolutions, count"
scalar LinkDegradation.hostA.ipv4.arp arpResolutionCompleted:count 1
attr recordingmode count
attr title "ARP completed resolutions, count"
scalar LinkDegradation.hostA.ipv4.arp arpResolutionInitiated:count 1
attr recordingmode count
attr title "ARP initiated resolutions, count"
par LinkDegradation.hostA.ipv4.lp typename "\"inet.common.MessageDispatcher\""
par LinkDegradation.hostA.ipv4.lp displayStringTextFormat "\"processed %p pk (%l)\""
par LinkDegradation.hostA.ipv4.lp forwardServiceRegistration true
par LinkDegradation.hostA.ipv4.lp forwardProtocolRegistration true
par LinkDegradation.hostA.ipv4 typename "\"inet.networklayer.ipv4.Ipv4NetworkLayer\""
par LinkDegradation.hostA.ipv4 forwarding false
par LinkDegradation.hostA.ipv4 multicastForwarding false
par LinkDegradation.hostA.ipv4 interfaceTableModule "\"LinkDegradation.hostA.interfaceTable\""
par LinkDegradation.hostA.ipv4 displayStringTextFormat "\"%i\""
par LinkDegradation.hostA.nl typename "\"inet.common.MessageDispatcher\""
par LinkDegradation.hostA.nl displayStringTextFormat "\"processed %p pk (%l)\""
par LinkDegradation.hostA.nl forwardServiceRegistration true
par LinkDegradation.hostA.nl forwardProtocolRegistration true
par LinkDegradation.hostA.udp typename "\"inet.transportlayer.udp.Udp\""
par LinkDegradation.hostA.udp interfaceTableModule "\"LinkDegradation.hostA.interfaceTable\""
par LinkDegradation.hostA.udp icmpModule "\"^.ipv4.icmp\""
par LinkDegradation.hostA.udp icmpv6Module "\"^.ipv6.icmpv6\""
par LinkDegradation.hostA.udp crcMode "\"declared\""
attr enum disabled,declared,computed
par LinkDegradation.hostA.udp defaultMulticastLoop true
scalar LinkDegradation.hostA.udp packetReceived:count 0
attr interpolationmode none
attr recordingmode count
attr source packetReceived
attr title "packets received, count"
scalar LinkDegradation.hostA.udp packetReceived:sum(packetBytes) 0
attr interpolationmode none
attr recordingmode sum(packetBytes)
attr source packetReceived
attr title "packets received, sum(packetBytes)"
scalar LinkDegradation.hostA.udp packetSent:count 244
attr interpolationmode none
attr recordingmode count
attr source packetSent
attr title "packets sent, count"
scalar LinkDegradation.hostA.udp packetSent:sum(packetBytes) 52768
attr interpolationmode none
attr recordingmode sum(packetBytes)
attr source packetSent
attr title "packets sent, sum(packetBytes)"
scalar LinkDegradation.hostA.udp passedUpPk:count 0
attr interpolationmode none
attr recordingmode count
attr source packetSentToUpper
attr title "packets passed up, count"
scalar LinkDegradation.hostA.udp droppedPkWrongPort:count 0
attr interpolationmode none
attr recordingmode count
attr source packetDropReasonIsNoPortFound(packetDropped)
attr title "packets dropped (wrong port), count"
scalar LinkDegradation.hostA.udp droppedPkBadChecksum:count 0
attr interpolationmode none
attr recordingmode count
attr source packetDropReasonIsIncorrectlyReceived(packetDropped)
attr title "packets dropped (checksum error), count"
par LinkDegradation.hostA.tcp typename "\"inet.transportlayer.tcp.Tcp\""
par LinkDegradation.hostA.tcp crcMode "\"declared\""
attr enum declared,computed
par LinkDegradation.hostA.tcp advertisedWindow 7504
par LinkDegradation.hostA.tcp delayedAcksEnabled false
par LinkDegradation.hostA.tcp nagleEnabled true
par LinkDegradation.hostA.tcp limitedTransmitEnabled false
par LinkDegradation.hostA.tcp increasedIWEnabled false
par LinkDegradation.hostA.tcp sackSupport false
par LinkDegradation.hostA.tcp windowScalingSupport false
par LinkDegradation.hostA.tcp windowScalingFactor -1
par LinkDegradation.hostA.tcp timestampSupport false
par LinkDegradation.hostA.tcp mss 536
par LinkDegradation.hostA.tcp msl 120s
attr unit s
par LinkDegradation.hostA.tcp tcpAlgorithmClass "\"TcpReno\""
par LinkDegradation.hostA.tcp useDataNotification false
par LinkDegradation.hostA.tcp dupthresh 3
par LinkDegradation.hostA.tcp initialSsthresh 4294967295
par LinkDegradation.hostA.tcp stopOperationExtraTime 0s
attr unit s
par LinkDegradation.hostA.tcp stopOperationTimeout 2s
attr unit s
par LinkDegradation.hostA.tcp ecnWillingness false
par LinkDegradation.hostA.tcp dctcpGamma 0.0625
par LinkDegradation.hostA.tn typename "\"inet.common.MessageDispatcher\""
par LinkDegradation.hostA.tn displayStringTextFormat "\"processed %p pk (%l)\""
par LinkDegradation.hostA.tn forwardServiceRegistration true
par LinkDegradation.hostA.tn forwardProtocolRegistration true
par LinkDegradation.hostA.app[0] typename "\"inet.applications.udpapp.UdpBasicApp\""
par LinkDegradation.hostA.app[0] interfaceTableModule "\"LinkDegradation.hostA.interfaceTable\""
par LinkDegradation.hostA.app[0] clockModule "\"\""
par LinkDegradation.hostA.app[0] localPort -1
par LinkDegradation.hostA.app[0] destAddresses "\"hostB\""
par LinkDegradation.hostA.app[0] localAddress "\"\""
par LinkDegradation.hostA.app[0] packetName "\"UdpBasicAppData\""
par LinkDegradation.hostA.app[0] destPort 5000
par LinkDegradation.hostA.app[0] messageLength 512B
attr unit B
par LinkDegradation.hostA.app[0] startTime 10s
attr unit s
par LinkDegradation.hostA.app[0] stopTime -1s
attr unit s
par LinkDegradation.hostA.app[0] sendInterval 1s
attr unit s
par LinkDegradation.hostA.app[0] timeToLive -1
par LinkDegradation.hostA.app[0] dontFragment false
par LinkDegradation.hostA.app[0] dscp -1
par LinkDegradation.hostA.app[0] tos -1
par LinkDegradation.hostA.app[0] multicastInterface "\"\""
par LinkDegradation.hostA.app[0] receiveBroadcast false
par LinkDegradation.hostA.app[0] joinLocalMulticastGroups false
par LinkDegradation.hostA.app[0] stopOperationExtraTime -1s
attr unit s
par LinkDegradation.hostA.app[0] stopOperationTimeout 2s
attr unit s
scalar LinkDegradation.hostA.app[0] "packets sent" 51
scalar LinkDegradation.hostA.app[0] "packets received" 0
scalar LinkDegradation.hostA.app[0] packetReceived:count 0
attr interpolationmode none
attr recordingmode count
attr source packetReceived
attr title "packets received, count"
scalar LinkDegradation.hostA.app[0] packetReceived:sum(packetBytes) 0
attr interpolationmode none
attr recordingmode sum(packetBytes)
attr source packetReceived
attr title "packets received, sum(packetBytes)"
statistic LinkDegradation.hostA.app[0] rcvdPkLifetime:stats
field count 0
field mean -nan(ind)
field stddev nan
field min nan
field max nan
field sum 0
field sqrsum 0
attr interpolationmode none
attr recordingmode stats
attr source dataAge(packetReceived)
attr title "received packet lifetime"
attr unit s
scalar LinkDegradation.hostA.app[0] packetSent:count 51
attr interpolationmode none
attr recordingmode count
attr source packetSent
attr title "packets sent, count"
par LinkDegradation.hostA.app[1] typename "\"inet.applications.udpapp.UdpBasicApp\""
par LinkDegradation.hostA.app[1] interfaceTableModule "\"LinkDegradation.hostA.interfaceTable\""
par LinkDegradation.hostA.app[1] clockModule "\"\""
par LinkDegradation.hostA.app[1] localPort -1
par LinkDegradation.hostA.app[1] destAddresses "\"hostB\""
par LinkDegradation.hostA.app[1] localAddress "\"\""
par LinkDegradation.hostA.app[1] packetName "\"UdpBasicAppData\""
par LinkDegradation.hostA.app[1] destPort 5001
par LinkDegradation.hostA.app[1] messageLength 128B
attr unit B
par LinkDegradation.hostA.app[1] startTime 12s
attr unit s
par LinkDegradation.hostA.app[1] stopTime -1s
attr unit s
par LinkDegradation.hostA.app[1] sendInterval 0.25s
attr unit s
par LinkDegradation.hostA.app[1] timeToLive -1
par LinkDegradation.hostA.app[1] dontFragment false
par LinkDegradation.hostA.app[1] dscp -1
par LinkDegradation.hostA.app[1] tos -1
par LinkDegradation.hostA.app[1] multicastInterface "\"\""
par LinkDegradation.hostA.app[1] receiveBroadcast false
par LinkDegradation.hostA.app[1] joinLocalMulticastGroups false
par LinkDegradation.hostA.app[1] stopOperationExtraTime -1s
attr unit s
par LinkDegradation.hostA.app[1] stopOperationTimeout 2s
attr unit s
scalar LinkDegradation.hostA.app[1] "packets sent" 193
scalar LinkDegradation.hostA.app[1] "packets received" 0
scalar LinkDegradation.hostA.app[1] packetReceived:count 0
attr interpolationmode none
attr recordingmode count
attr source packetReceived
attr title "packets received, count"
scalar LinkDegradation.hostA.app[1] packetReceived:sum(packetBytes) 0
attr interpolationmode none
attr recordingmode sum(packetBytes)
attr source packetReceived
attr title "packets received, sum(packetBytes)"
statistic LinkDegradation.hostA.app[1] rcvdPkLifetime:stats
field count 0
field mean -nan(ind)
field stddev nan
field min nan
field max nan
field sum 0
field sqrsum 0
attr interpolationmode none
attr recordingmode stats
attr source dataAge(packetReceived)
attr title "received packet lifetime"
attr unit s
scalar LinkDegradation.hostA.app[1] packetSent:count 193
attr interpolationmode none
attr recordingmode count
attr source packetSent
attr title "packets sent, count"
par LinkDegradation.hostA.at typename "\"inet.common.MessageDispatcher\""
par LinkDegradation.hostA.at displayStringTextFormat "\"processed %p pk (%l)\""
par LinkDegradation.hostA.at forwardServiceRegistration true
par LinkDegradation.hostA.at forwardProtocolRegistration true
par LinkDegradation.hostA typename "\"inet.node.inet.StandardHost\""
par LinkDegradation.hostA hasStatus false
par LinkDegradation.hostA osgModel "\"\""
par LinkDegradation.hostA osgModelColor "\"\""
par LinkDegradation.hostA canvasImage "\"\""
par LinkDegradation.hostA canvasImageColor "\"\""
par LinkDegradation.hostA recordPcap false
par LinkDegradation.hostA numPcapRecorders 0
par LinkDegradation.hostA numLoInterfaces 1
par LinkDegradation.hostA numWlanInterfaces 0
par LinkDegradation.hostA numEthInterfaces 0
par LinkDegradation.hostA numPppInterfaces 0
par LinkDegradation.hostA numTunInterfaces 0
par LinkDegradation.hostA numVirtInterfaces 0
par LinkDegradation.hostA fcsMode "\"declared\""
attr enum declared,computed
par LinkDegradation.hostA hasIpv4 true
par LinkDegradation.hostA hasIpv6 false
par LinkDegradation.hostA hasGn false
par LinkDegradation.hostA forwarding false
par LinkDegradation.hostA multicastForwarding false
par LinkDegradation.hostA hasUdp true
par LinkDegradation.hostA hasTcp true
par LinkDegradation.hostA hasSctp false
par LinkDegradation.hostA numApps 2
par LinkDegradation.r1.ethg$i[0].channel typename "\"ned.IdealChannel\""
par LinkDegradation.r1.eth[0].phys$o.channel typename "\"ned.IdealChannel\""
par LinkDegradation.r1.ethg$i[1].channel typename "\"ned.IdealChannel\""
par LinkDegradation.r1.eth[1].phys$o.channel typename "\"ned.IdealChannel\""
par LinkDegradation.r1.ethg$i[2].channel typename "\"ned.IdealChannel\""
par LinkDegradation.r1.eth[2].phys$o.channel typename "\"ned.IdealChannel\""
par LinkDegradation.r1.interfaceTable typename "\"inet.networklayer.common.InterfaceTable\""
par LinkDegradation.r1.interfaceTable displayAddresses false
par LinkDegradation.r1.cb typename "\"inet.common.MessageDispatcher\""
par LinkDegradation.r1.cb displayStringTextFormat "\"processed %p pk (%l)\""
par LinkDegradation.r1.cb forwardServiceRegistration true
par LinkDegradation.r1.cb forwardProtocolRegistration true
par LinkDegradation.r1.bl typename "\"inet.common.MessageDispatcher\""
par LinkDegradation.r1.bl displayStringTextFormat "\"processed %p pk (%l)\""
par LinkDegradation.r1.bl forwardServiceRegistration true
par LinkDegradation.r1.bl forwardProtocolRegistration true
par LinkDegradation.r1.ethernet typename "\"inet.linklayer.ethernet.basic.EthernetEncapsulation\""
par LinkDegradation.r1.ethernet registerProtocol true
par LinkDegradation.r1.ethernet interfaceTableModule "\"LinkDegradation.r1.interfaceTable\""
par LinkDegradation.r1.ethernet fcsMode "\"declared\""
attr enum declared,computed
par LinkDegradation.r1.ethernet stopOperationExtraTime -1s
attr unit s
par LinkDegradation.r1.ethernet stopOperationTimeout 2s
attr unit s
scalar LinkDegradation.r1.ethernet decapPk:count 293
attr interpolationmode none
attr recordingmode count
attr source decapPk
attr title "packets decapsulated, count"
scalar LinkDegradation.r1.ethernet decapPk:sum(packetBytes) 61058
attr interpolationmode none
attr recordingmode sum(packetBytes)
attr source decapPk
attr title "packets decapsulated, sum(packetBytes)"
scalar LinkDegradation.r1.ethernet encapPk:count 302
attr interpolationmode none
attr recordingmode count
attr source encapPk
attr title "packets encapsulated, count"
scalar LinkDegradation.r1.ethernet encapPk:sum(packetBytes) 61752
attr interpolationmode none
attr recordingmode sum(packetBytes)
attr source encapPk
attr title "packets encapsulated, sum(packetBytes)"
scalar LinkDegradation.r1.ethernet pauseSent:count 0
attr recordingmode count
attr title "pause sent, count"
scalar LinkDegradation.r1.ethernet pauseSent:sum 0
attr recordingmode sum
attr title "pause sent, sum"
par LinkDegradation.r1.li typename "\"inet.common.MessageDispatcher\""
par LinkDegradation.r1.li displayStringTextFormat "\"processed %p pk (%l)\""
par LinkDegradation.r1.li forwardServiceRegistration true
par LinkDegradation.r1.li forwardProtocolRegistration true
par LinkDegradation.r1.lo[0].upperLayerIn.channel typename "\"ned.IdealChannel\""
par LinkDegradation.r1.lo[0].lo.upperLayerOut.channel typename "\"ned.IdealChannel\""
par LinkDegradation.r1.lo[0].lo typename "\"inet.linklayer.loopback.Loopback\""
par LinkDegradation.r1.lo[0].lo interfaceTableModule "\"LinkDegradation.r1.interfaceTable\""
par LinkDegradation.r1.lo[0].lo mtu 4470B
attr unit B
scalar LinkDegradation.r1.lo[0].lo rcvdPkFromHl:count 0
attr interpolationmode none
attr recordingmode count
attr source packetReceivedFromUpper
attr title "packets received from higher layer, count"
scalar LinkDegradation.r1.lo[0].lo rcvdPkFromHl:sum(packetBytes) 0
attr interpolationmode none
attr recordingmode sum(packetBytes)
attr source packetReceivedFromUpper
attr title "packets received from higher layer, sum(packetBytes)"
scalar LinkDegradation.r1.lo[0].lo passedUpPk:count 0
attr interpolationmode none
attr recordingmode count
attr source packetSentToUpper
attr title "packets passed to higher layer, count"
scalar LinkDegradation.r1.lo[0].lo passedUpPk:sum(packetBytes) 0
attr interpolationmode none
attr recordingmode sum(packetBytes)
attr source packetSentToUpper
attr title "packets passed to higher layer, sum(packetBytes)"
par LinkDegradation.r1.lo[0] typename "\"inet.linklayer.loopback.LoopbackInterface\""
par LinkDegradation.r1.lo[0] displayStringTextFormat "\"%a (%i)\\n%m\""
par LinkDegradation.r1.lo[0] recordPcap false
par LinkDegradation.r1.lo[0] numPcapRecorders 0
par LinkDegradation.r1.lo[0] interfaceTableModule "\"LinkDegradation.r1.interfaceTable\""
scalar LinkDegradation.r1.lo[0] packetDropInterfaceDown:count 0
attr interpolationmode none
attr recordingmode count
attr source packetDropReasonIsInterfaceDown(packetDropped)
attr title "packet drops: interface down, count"
scalar LinkDegradation.r1.lo[0] packetDropInterfaceDown:sum(packetBytes) 0
attr interpolationmode none
attr recordingmode sum(packetBytes)
attr source packetDropReasonIsInterfaceDown(packetDropped)
attr title "packet drops: interface down, sum(packetBytes)"
scalar LinkDegradation.r1.lo[0] packetDropNoCarrier:count 0
attr interpolationmode none
attr recordingmode count
attr source packetDropReasonIsNoCarrier(packetDropped)
attr title "packet drops: no carrier, count"
scalar LinkDegradation.r1.lo[0] packetDropNoCarrier:sum(packetBytes) 0
attr interpolationmode none
attr recordingmode sum(packetBytes)
attr source packetDropReasonIsNoCarrier(packetDropped)
attr title "packet drops: no carrier, sum(packetBytes)"
par LinkDegradation.r1.eth[0].mac.phys$o.channel typename "\"ned.IdealChannel\""
par LinkDegradation.r1.eth[0].phys$i.channel typename "\"ned.IdealChannel\""
par LinkDegradation.r1.eth[0].upperLayerIn.channel typename "\"ned.IdealChannel\""
par LinkDegradation.r1.eth[0].mac.upperLayerOut.channel typename "\"ned.IdealChannel\""
par LinkDegradation.r1.eth[0].queue typename "\"inet.linklayer.ethernet.common.EthernetQueue\""
par LinkDegradation.r1.eth[0].queue displayStringTextFormat "\"contains %p pk (%l) pushed %u\\npulled %o removed %r dropped %d\""
par LinkDegradation.r1.eth[0].queue packetCapacity 1000
par LinkDegradation.r1.eth[0].queue dataCapacity -1b
attr unit b
par LinkDegradation.r1.eth[0].queue dropperClass "\"inet::queueing::PacketAtCollectionEndDropper\""
par LinkDegradation.r1.eth[0].queue comparatorClass "\"inet::EthernetFrameTypeComparator\""
par LinkDegradation.r1.eth[0].queue bufferModule "\"\""
scalar LinkDegradation.r1.eth[0].queue queueLength:last 0
attr autoWarmupFilter false
attr interpolationmode sample-hold
attr recordingmode last
attr source "warmup(atomic(constant0(packetPushEnded) + count(packetPushStarted) - count(packetPulled) - count(packetRemoved) - count(packetDropped)))"
attr title "queue length, last"
attr unit pk
scalar LinkDegradation.r1.eth[0].queue queueLength:max 0
attr autoWarmupFilter false
attr interpolationmode sample-hold
attr recordingmode max
attr source "warmup(atomic(constant0(packetPushEnded) + count(packetPushStarted) - count(packetPulled) - count(packetRemoved) - count(packetDropped)))"
attr title "queue length, max"
attr unit pk
scalar LinkDegradation.r1.eth[0].queue queueLength:timeavg 0
attr autoWarmupFilter false
attr interpolationmode sample-hold
attr recordingmode timeavg
attr source "warmup(atomic(constant0(packetPushEnded) + count(packetPushStarted) - count(packetPulled) - count(packetRemoved) - count(packetDropped)))"
attr title "queue length, timeavg"
attr unit pk
scalar LinkDegradation.r1.eth[0].queue queueBitLength:last 0
attr autoWarmupFilter false
attr interpolationmode sample-hold
attr recordingmode last
attr source "warmup(atomic(constant0(packetPushEnded) + sum(packetLength(packetPushStarted)) - sum(packetLength(packetPulled)) - sum(packetLength(packetRemoved)) - sum(packetLength(packetDropped))))"
attr title "queue bit length, last"
attr unit b
scalar LinkDegradation.r1.eth[0].queue queueBitLength:max 0
attr autoWarmupFilter false
attr interpolationmode sample-hold
attr recordingmode max
attr source "warmup(atomic(constant0(packetPushEnded) + sum(packetLength(packetPushStarted)) - sum(packetLength(packetPulled)) - sum(packetLength(packetRemoved)) - sum(packetLength(packetDropped))))"
attr title "queue bit length, max"
attr unit b
scalar LinkDegradation.r1.eth[0].queue queueBitLength:timeavg 0
attr autoWarmupFilter false
attr interpolationmode sample-hold
attr recordingmode timeavg
attr source "warmup(atomic(constant0(packetPushEnded) + sum(packetLength(packetPushStarted)) - sum(packetLength(packetPulled)) - sum(packetLength(packetRemoved)) - sum(packetLength(packetDropped))))"
attr title "queue bit length, timeavg"
attr unit b
statistic LinkDegradation.r1.eth[0].queue queueingTime:histogram
field count 7
field mean 0
field stddev 0
field min 0
field max 0
field sum 0
field sqrsum 0
attr interpolationmode none
attr recordingmode histogram
attr source queueingTime(packetPulled)
attr title "queueing times"
attr unit s
bin	-inf	0
bin	-0.5	0
bin	-0.48	0
bin	-0.46	0
bin	-0.44	0
bin	-0.42	0
bin	-0.4	0
bin	-0.38	0
bin	-0.36	0
bin	-0.34	0
bin	-0.32	0
bin	-0.3	0
bin	-0.28	0
bin	-0.26	0
bin	-0.24	0
bin	-0.22	0
bin	-0.2	0
bin	-0.18	0
bin	-0.16	0
bin	-0.14	0
bin	-0.12	0
bin	-0.1	0
bin	-0.08	0
bin	-0.06	0
bin	-0.04	0
bin	-0.02	0
bin	0	7
bin	0.02	0
bin	0.04	0
bin	0.06	0
bin	0.08	0
bin	0.1	0
bin	0.12	0
bin	0.14	0
bin	0.16	0
bin	0.18	0
bin	0.2	0
bin	0.22	0
bin	0.24	0
bin	0.26	0
bin	0.28	0
bin	0.3	0
bin	0.32	0
bin	0.34	0
bin	0.36	0
bin	0.38	0
bin	0.4	0
bin	0.42	0
bin	0.44	0
bin	0.46	0
bin	0.48	0
bin	0.5	0
scalar LinkDegradation.r1.eth[0].queue outgoingPackets:count 7
attr recordingmode count
attr source packetPulled
attr title "outgoing packets, count"
attr unit pk
scalar LinkDegradation.r1.eth[0].queue outgoingPacketLengths:sum 4304
attr interpolationmode none
attr recordingmode sum
attr source packetLength(packetPulled)
attr title "outgoing packet lengths, sum"
attr unit b
statistic LinkDegradation.r1.eth[0].queue outgoingPacketLengths:histogram
field count 7
field mean 614.85714285714
field stddev 108.85376822666
field min 368
field max 656
field sum 4304
field sqrsum 2717440
attr interpolationmode none
attr recordingmode histogram
attr source packetLength(packetPulled)
attr title "outgoing packet lengths"
attr unit b
bin	-inf	0
bin	295	0
bin	300	0
bin	305	0
bin	310	0
bin	315	0
bin	320	0
bin	325	0
bin	330	0
bin	335	0
bin	340	0
bin	345	0
bin	350	0
bin	355	0
bin	360	0
bin	365	1
bin	370	0
bin	375	0
bin	380	0
bin	385	0
bin	390	0
bin	395	0
bin	400	0
bin	405	0
bin	410	0
bin	415	0
bin	420	0
bin	425	0
bin	430	0
bin	435	0
bin	440	0
bin	445	0
bin	450	0
bin	455	0
bin	460	0
bin	465	0
bin	470	0
bin	475	0
bin	480	0
bin	485	0
bin	490	0
bin	495	0
bin	500	0
bin	505	0
bin	510	0
bin	515	0
bin	520	0
bin	525	0
bin	530	0
bin	535	0
bin	540	0
bin	545	0
bin	550	0
bin	555	0
bin	560	0
bin	565	0
bin	570	0
bin	575	0
bin	580	0
bin	585	0
bin	590	0
bin	595	0
bin	600	0
bin	605	0
bin	610	0
bin	615	0
bin	620	0
bin	625	0
bin	630	0
bin	635	0
bin	640	0
bin	645	0
bin	650	0
bin	655	6
bin	660	0
bin	665	0
bin	670	0
bin	675	0
bin	680	0
bin	685	0
bin	690	0
bin	695	0
bin	700	0
bin	705	0
bin	710	0
bin	715	0
bin	720	0
bin	725	0
bin	730	0
statistic LinkDegradation.r1.eth[0].queue flowQueueingTime:histogram
field count 0
field mean -nan(ind)
field stddev nan
field min nan
field max nan
field sum 0
field sqrsum 0
attr interpolationmode none
attr recordingmode histogram
attr source queueingTime(demuxFlow(packetPulled))
attr title "flow queueing times"
attr unit s
bin	-inf	0
bin	0	0
bin	1	0
scalar LinkDegradation.r1.eth[0].queue incomingPackets:count 7
attr recordingmode count
attr source packetPushStarted
attr title "incoming packets, count"
attr unit pk
scalar LinkDegradation.r1.eth[0].queue incomingPacketLengths:sum 4304
attr interpolationmode none
attr recordingmode sum
attr source packetLength(packetPushStarted)
attr title "incoming packet lengths, sum"
attr unit b
statistic LinkDegradation.r1.eth[0].queue incomingPacketLengths:histogram
field count 7
field mean 614.85714285714
field stddev 108.85376822666
field min 368
field max 656
field sum 4304
field sqrsum 2717440
attr interpolationmode none
attr recordingmode histogram
attr source packetLength(packetPushStarted)
attr title "incoming packet lengths"
attr unit b
bin	-inf	0
bin	295	0
bin	300	0
bin	305	0
bin	310	0
bin	315	0
bin	320	0
bin	325	0
bin	330	0
bin	335	0
bin	340	0
bin	345	0
bin	350	0
bin	355	0
bin	360	0
bin	365	1
bin	370	0
bin	375	0
bin	380	0
bin	385	0
bin	390	0
bin	395	0
bin	400	0
bin	405	0
bin	410	0
bin	415	0
bin	420	0
bin	425	0
bin	430	0
bin	435	0
bin	440	0
bin	445	0
bin	450	0
bin	455	0
bin	460	0
bin	465	0
bin	470	0
bin	475	0
bin	480	0
bin	485	0
bin	490	0
bin	495	0
bin	500	0
bin	505	0
bin	510	0
bin	515	0
bin	520	0
bin	525	0
bin	530	0
bin	535	0
bin	540	0
bin	545	0
bin	550	0
bin	555	0
bin	560	0
bin	565	0
bin	570	0
bin	575	0
bin	580	0
bin	585	0
bin	590	0
bin	595	0
bin	600	0
bin	605	0
bin	610	0
bin	615	0
bin	620	0
bin	625	0
bin	630	0
bin	635	0
bin	640	0
bin	645	0
bin	650	0
bin	655	6
bin	660	0
bin	665	0
bin	670	0
bin	675	0
bin	680	0
bin	685	0
bin	690	0
bin	695	0
bin	700	0
bin	705	0
bin	710	0
bin	715	0
bin	720	0
bin	725	0
bin	730	0
scalar LinkDegradation.r1.eth[0].queue droppedPacketsQueueOverflow:count 0
attr interpolationmode none
attr recordingmode count
attr source packetDropReasonIsQueueOverflow(packetDropped)
attr title "dropped packets: queue overflow, count"
attr unit pk
scalar LinkDegradation.r1.eth[0].queue droppedPacketLengthsQueueOverflow:sum 0
attr interpolationmode none
attr recordingmode sum
attr source packetLength(packetDropReasonIsQueueOverflow(packetDropped))
attr title "dropped packet lengths: queue overflow, sum"
attr unit b
par LinkDegradation.r1.eth[0].mac typename "\"inet.linklayer.ethernet.basic.EthernetMac\""
par LinkDegradation.r1.eth[0].mac interfaceTableModule "\"LinkDegradation.r1.interfaceTable\""
par LinkDegradation.r1.eth[0].mac displayStringTextFormat "\"rate: %b\\nsent: %s, rcvd: %r\\nqueue: %q, drop: %d\""
par LinkDegradation.r1.eth[0].mac sendRawBytes false
par LinkDegradation.r1.eth[0].mac promiscuous false
par LinkDegradation.r1.eth[0].mac duplexMode true
par LinkDegradation.r1.eth[0].mac mtu 1500B
attr unit B
par LinkDegradation.r1.eth[0].mac fcsMode "\"declared\""
attr enum declared,computed
par LinkDegradation.r1.eth[0].mac stopOperationExtraTime -1s
attr unit s
par LinkDegradation.r1.eth[0].mac stopOperationTimeout 2s
attr unit s
scalar LinkDegradation.r1.eth[0].mac "simulated time" 60
scalar LinkDegradation.r1.eth[0].mac full-duplex 1
scalar LinkDegradation.r1.eth[0].mac "frames/sec sent" 0.11666666666667
scalar LinkDegradation.r1.eth[0].mac "frames/sec rcvd" 4.05
scalar LinkDegradation.r1.eth[0].mac "bits/sec sent" 74.133333333333
scalar LinkDegradation.r1.eth[0].mac "bits/sec rcvd" 8182.9333333333
scalar LinkDegradation.r1.eth[0].mac "rx channel idle (%)" 99.991557866667
scalar LinkDegradation.r1.eth[0].mac "rx channel utilization (%)" 0.0084421333333333
scalar LinkDegradation.r1.eth[0].mac txPk:count 7
attr interpolationmode none
attr recordingmode count
attr source packetSentToLower
attr title "packets transmitted, count"
scalar LinkDegradation.r1.eth[0].mac txPk:sum(packetBytes) 556
attr interpolationmode none
attr recordingmode sum(packetBytes)
attr source packetSentToLower
attr title "packets transmitted, sum(packetBytes)"
scalar LinkDegradation.r1.eth[0].mac packetReceivedFromUpper:count 7
attr interpolationmode none
attr recordingmode count
attr source packetReceivedFromUpper
attr title "packet bytes from higher layer, count"
scalar LinkDegradation.r1.eth[0].mac packetReceivedFromUpper:sum(packetBytes) 538
attr interpolationmode none
attr recordingmode sum(packetBytes)
attr source packetReceivedFromUpper
attr title "packet bytes from higher layer, sum(packetBytes)"
scalar LinkDegradation.r1.eth[0].mac passedUpPk:count 243
attr interpolationmode none
attr recordingmode count
attr source packetSentToUpper
attr title "packets passed to higher layer, count"
scalar LinkDegradation.r1.eth[0].mac passedUpPk:sum(packetBytes) 61372
attr interpolationmode none
attr recordingmode sum(packetBytes)
attr source packetSentToUpper
attr title "packets passed to higher layer, sum(packetBytes)"
scalar LinkDegradation.r1.eth[0].mac packetDropIncorrectlyReceived:count 0
attr interpolationmode none
attr recordingmode count
attr source packetDropReasonIsIncorrectlyReceived(packetDropped)
attr title "packet drop: incorrectly received, count"
scalar LinkDegradation.r1.eth[0].mac packetDropIncorrectlyReceived:sum(packetBytes) 0
attr interpolationmode none
attr recordingmode sum(packetBytes)
attr source packetDropReasonIsIncorrectlyReceived(packetDropped)
attr title "packet drop: incorrectly received, sum(packetBytes)"
scalar LinkDegradation.r1.eth[0].mac packetDropInterfaceDown:count 0
attr interpolationmode none
attr recordingmode count
attr source packetDropReasonIsInterfaceDown(packetDropped)
attr title "packet drop: interface down, count"
scalar LinkDegradation.r1.eth[0].mac packetDropInterfaceDown:sum(packetBytes) 0
attr interpolationmode none
attr recordingmode sum(packetBytes)
attr source packetDropReasonIsInterfaceDown(packetDropped)
attr title "packet drop: interface down, sum(packetBytes)"
scalar LinkDegradation.r1.eth[0].mac packetDropNotAddressedToUs:count 0
attr interpolationmode none
attr recordingmode count
attr source packetDropReasonIsNotAddressedToUs(packetDropped)
attr title "packet drop: not addressed to us, count"
scalar LinkDegradation.r1.eth[0].mac packetDropNotAddressedToUs:sum(packetBytes) 0
attr interpolationmode none
attr recordingmode sum(packetBytes)
attr source packetDropReasonIsNotAddressedToUs(packetDropped)
attr title "packet drop: not addressed to us, sum(packetBytes)"
scalar LinkDegradation.r1.eth[0].mac rxPausePkUnits:count 0
attr interpolationmode none
attr recordingmode count
attr title "pause units received, count"
scalar LinkDegradation.r1.eth[0].mac rxPausePkUnits:sum 0
attr interpolationmode none
attr recordingmode sum
attr title "pause units received, sum"
scalar LinkDegradation.r1.eth[0].mac txPausePkUnits:count 0
attr interpolationmode none
attr recordingmode count
attr title "pause units sent, count"
scalar LinkDegradation.r1.eth[0].mac txPausePkUnits:sum 0
attr interpolationmode none
attr recordingmode sum
attr title "pause units sent, sum"
scalar LinkDegradation.r1.eth[0].mac rxPkOk:count 243
attr interpolationmode none
attr recordingmode count
attr source rxPkOk
attr title "packets received OK, count"
scalar LinkDegradation.r1.eth[0].mac rxPkOk:sum(packetBytes) 61372
attr interpolationmode none
attr recordingmode sum(packetBytes)
attr source rxPkOk
attr title "packets received OK, sum(packetBytes)"
par LinkDegradation.r1.eth[0] typename "\"inet.linklayer.ethernet.EthernetInterface\""
par LinkDegradation.r1.eth[0] displayStringTextFormat "\"%a (%i)\\n%m\""
par LinkDegradation.r1.eth[0] recordPcap false
par LinkDegradation.r1.eth[0] numPcapRecorders 0
par LinkDegradation.r1.eth[0] interfaceTableModule "\"LinkDegradation.r1.interfaceTable\""
par LinkDegradation.r1.eth[0] protocol "\"ethernetmac\""
par LinkDegradation.r1.eth[0] address "\"0A-AA-00-00-00-02\""
attr mutable ""
par LinkDegradation.r1.eth[0] duplexMode true
par LinkDegradation.r1.eth[0] csmacdSupport false
par LinkDegradation.r1.eth[0] bitrate 0bps
attr unit bps
par LinkDegradation.r1.eth[0] fcsMode "\"declared\""
attr enum declared,computed
scalar LinkDegradation.r1.eth[0] packetDropInterfaceDown:count 0
attr interpolationmode none
attr recordingmode count
attr source packetDropReasonIsInterfaceDown(packetDropped)
attr title "packet drops: interface down, count"
scalar LinkDegradation.r1.eth[0] packetDropInterfaceDown:sum(packetBytes) 0
attr interpolationmode none
attr recordingmode sum(packetBytes)
attr source packetDropReasonIsInterfaceDown(packetDropped)
attr title "packet drops: interface down, sum(packetBytes)"
scalar LinkDegradation.r1.eth[0] packetDropNoCarrier:count 0
attr interpolationmode none
attr recordingmode count
attr source packetDropReasonIsNoCarrier(packetDropped)
attr title "packet drops: no carrier, count"
scalar LinkDegradation.r1.eth[0] packetDropNoCarrier:sum(packetBytes) 0
attr interpolationmode none
attr recordingmode sum(packetBytes)
attr source packetDropReasonIsNoCarrier(packetDropped)
attr title "packet drops: no carrier, sum(packetBytes)"
par LinkDegradation.r1.eth[1].mac.phys$o.channel typename "\"ned.IdealChannel\""
par LinkDegradation.r1.eth[1].phys$i.channel typename "\"ned.IdealChannel\""
par LinkDegradation.r1.eth[1].upperLayerIn.channel typename "\"ned.IdealChannel\""
par LinkDegradation.r1.eth[1].mac.upperLayerOut.channel typename "\"ned.IdealChannel\""
par LinkDegradation.r1.eth[1].queue typename "\"inet.linklayer.ethernet.common.EthernetQueue\""
par LinkDegradation.r1.eth[1].queue displayStringTextFormat "\"contains %p pk (%l) pushed %u\\npulled %o removed %r dropped %d\""
par LinkDegradation.r1.eth[1].queue packetCapacity 1000
par LinkDegradation.r1.eth[1].queue dataCapacity -1b
attr unit b
par LinkDegradation.r1.eth[1].queue dropperClass "\"inet::queueing::PacketAtCollectionEndDropper\""
par LinkDegradation.r1.eth[1].queue comparatorClass "\"inet::EthernetFrameTypeComparator\""
par LinkDegradation.r1.eth[1].queue bufferModule "\"\""
scalar LinkDegradation.r1.eth[1].queue queueLength:last 0
attr autoWarmupFilter false
attr interpolationmode sample-hold
attr recordingmode last
attr source "warmup(atomic(constant0(packetPushEnded) + count(packetPushStarted) - count(packetPulled) - count(packetRemoved) - count(packetDropped)))"
attr title "queue length, last"
attr unit pk
scalar LinkDegradation.r1.eth[1].queue queueLength:max 3
attr autoWarmupFilter false
attr interpolationmode sample-hold
attr recordingmode max
attr source "warmup(atomic(constant0(packetPushEnded) + count(packetPushStarted) - count(packetPulled) - count(packetRemoved) - count(packetDropped)))"
attr title "queue length, max"
attr unit pk
scalar LinkDegradation.r1.eth[1].queue queueLength:timeavg 1.7802e-05
attr autoWarmupFilter false
attr interpolationmode sample-hold
attr recordingmode timeavg
attr source "warmup(atomic(constant0(packetPushEnded) + count(packetPushStarted) - count(packetPulled) - count(packetRemoved) - count(packetDropped)))"
attr title "queue length, timeavg"
attr unit pk
scalar LinkDegradation.r1.eth[1].queue queueBitLength:last 0
attr autoWarmupFilter false
attr interpolationmode sample-hold
attr recordingmode last
attr source "warmup(atomic(constant0(packetPushEnded) + sum(packetLength(packetPushStarted)) - sum(packetLength(packetPulled)) - sum(packetLength(packetRemoved)) - sum(packetLength(packetDropped))))"
attr title "queue bit length, last"
attr unit b
scalar LinkDegradation.r1.eth[1].queue queueBitLength:max 2928
attr autoWarmupFilter false
attr interpolationmode sample-hold
attr recordingmode max
attr source "warmup(atomic(constant0(packetPushEnded) + sum(packetLength(packetPushStarted)) - sum(packetLength(packetPulled)) - sum(packetLength(packetRemoved)) - sum(packetLength(packetDropped))))"
attr title "queue bit length, max"
attr unit b
scalar LinkDegradation.r1.eth[1].queue queueBitLength:timeavg 0.024157408
attr autoWarmupFilter false
attr interpolationmode sample-hold
attr recordingmode timeavg
attr source "warmup(atomic(constant0(packetPushEnded) + sum(packetLength(packetPushStarted)) - sum(packetLength(packetPulled)) - sum(packetLength(packetRemoved)) - sum(packetLength(packetDropped))))"
attr title "queue bit length, timeavg"
attr unit b
statistic LinkDegradation.r1.eth[1].queue queueingTime:histogram
field count 192
field mean 5.563125e-06
field stddev 1.1702257294443e-05
field min 0
field max 3.072e-05
field sum 0.00106812
field sqrsum 3.20981648e-08
attr interpolationmode none
attr recordingmode histogram
attr source queueingTime(packetPulled)
attr title "queueing times"
attr unit s
bin	-inf	0
bin	0	155
bin	5e-07	0
bin	1e-06	0
bin	1.5e-06	0
bin	2e-06	0
bin	2.5e-06	0
bin	3e-06	0
bin	3.5e-06	0
bin	4e-06	0
bin	4.5e-06	0
bin	5e-06	1
bin	5.5e-06	0
bin	6e-06	0
bin	6.5e-06	0
bin	7e-06	1
bin	7.5e-06	0
bin	8e-06	0
bin	8.5e-06	0
bin	9e-06	0
bin	9.5e-06	0
bin	1e-05	0
bin	1.05e-05	0
bin	1.1e-05	0
bin	1.15e-05	0
bin	1.2e-05	0
bin	1.25e-05	0
bin	1.3e-05	0
bin	1.35e-05	0
bin	1.4e-05	0
bin	1.45e-05	0
bin	1.5e-05	0
bin	1.55e-05	0
bin	1.6e-05	0
bin	1.65e-05	0
bin	1.7e-05	0
bin	1.75e-05	1
bin	1.8e-05	0
bin	1.85e-05	0
bin	1.9e-05	0
bin	1.95e-05	0
bin	2e-05	0
bin	2.05e-05	0
bin	2.1e-05	0
bin	2.15e-05	0
bin	2.2e-05	0
bin	2.25e-05	0
bin	2.3e-05	0
bin	2.35e-05	0
bin	2.4e-05	0
bin	2.45e-05	0
bin	2.5e-05	0
bin	2.55e-05	0
bin	2.6e-05	1
bin	2.65e-05	0
bin	2.7e-05	0
bin	2.75e-05	0
bin	2.8e-05	0
bin	2.85e-05	1
bin	2.9e-05	0
bin	2.95e-05	0
bin	3e-05	0
bin	3.05e-05	32
bin	3.1e-05	0
bin	3.15e-05	0
bin	3.2e-05	0
bin	3.25e-05	0
bin	3.3e-05	0
bin	3.35e-05	0
bin	3.4e-05	0
bin	3.45e-05	0
bin	3.5e-05	0
bin	3.55e-05	0
bin	3.6e-05	0
bin	3.65e-05	0
bin	3.7e-05	0
bin	3.75e-05	0
bin	3.8e-05	0
bin	3.85e-05	0
scalar LinkDegradation.r1.eth[1].queue outgoingPackets:count 192
attr recordingmode count
attr source packetPulled
attr title "outgoing packets, count"
attr unit pk
scalar LinkDegradation.r1.eth[1].queue outgoingPacketLengths:sum 356928
attr interpolationmode none
attr recordingmode sum
attr source packetLength(packetPulled)
attr title "outgoing packet lengths, sum"
attr unit b
statistic LinkDegradation.r1.eth[1].queue outgoingPacketLengths:histogram
field count 192
field mean 1859
field stddev 1230.0152640265
field min 368
field max 4464
field sum 356928
field sqrsum 952500224
attr interpolationmode none
attr recordingmode histogram
attr source packetLength(packetPulled)
attr title "outgoing packet lengths"
attr unit b
bin	-inf	0
bin	0	0
bin	100	0
bin	200	0
bin	300	1
bin	400	0
bin	500	4
bin	600	9
bin	700	0
bin	800	2
bin	900	1
bin	1000	2
bin	1100	3
bin	1200	4
bin	1300	132
bin	1400	0
bin	1500	0
bin	1600	0
bin	1700	0
bin	1800	0
bin	1900	0
bin	2000	0
bin	2100	0
bin	2200	0
bin	2300	0
bin	2400	0
bin	2500	0
bin	2600	0
bin	2700	0
bin	2800	0
bin	2900	0
bin	3000	0
bin	3100	0
bin	3200	0
bin	3300	0
bin	3400	0
bin	3500	0
bin	3600	0
bin	3700	0
bin	3800	0
bin	3900	0
bin	4000	0
bin	4100	0
bin	4200	0
bin	4300	0
bin	4400	34
bin	4500	0
bin	4600	0
bin	4700	0
bin	4800	0
bin	4900	0
bin	5000	0
bin	5100	0
bin	5200	0
bin	5300	0
bin	5400	0
bin	5500	0
statistic LinkDegradation.r1.eth[1].queue flowQueueingTime:histogram
field count 0
field mean -nan(ind)
field stddev nan
field min nan
field max nan
field sum 0
field sqrsum 0
attr interpolationmode none
attr recordingmode histogram
attr source queueingTime(demuxFlow(packetPulled))
attr title "flow queueing times"
attr unit s
bin	-inf	0
bin	0	0
bin	1	0
scalar LinkDegradation.r1.eth[1].queue incomingPackets:count 192
attr recordingmode count
attr source packetPushStarted
attr title "incoming packets, count"
attr unit pk
scalar LinkDegradation.r1.eth[1].queue incomingPacketLengths:sum 356928
attr interpolationmode none
attr recordingmode sum
attr source packetLength(packetPushStarted)
attr title "incoming packet lengths, sum"
attr unit b
statistic LinkDegradation.r1.eth[1].queue incomingPacketLengths:histogram
field count 192
field mean 1859
field stddev 1230.0152640265
field min 368
field max 4464
field sum 356928
field sqrsum 952500224
attr interpolationmode none
attr recordingmode histogram
attr source packetLength(packetPushStarted)
attr title "incoming packet lengths"
attr unit b
bin	-inf	0
bin	0	0
bin	100	0
bin	200	0
bin	300	1
bin	400	0
bin	500	4
bin	600	9
bin	700	0
bin	800	2
bin	900	1
bin	1000	2
bin	1100	3
bin	1200	4
bin	1300	132
bin	1400	0
bin	1500	0
bin	1600	0
bin	1700	0
bin	1800	0
bin	1900	0
bin	2000	0
bin	2100	0
bin	2200	0
bin	2300	0
bin	2400	0
bin	2500	0
bin	2600	0
bin	2700	0
bin	2800	0
bin	2900	0
bin	3000	0
bin	3100	0
bin	3200	0
bin	3300	0
bin	3400	0
bin	3500	0
bin	3600	0
bin	3700	0
bin	3800	0
bin	3900	0
bin	4000	0
bin	4100	0
bin	4200	0
bin	4300	0
bin	4400	34
bin	4500	0
bin	4600	0
bin	4700	0
bin	4800	0
bin	4900	0
bin	5000	0
bin	5100	0
bin	5200	0
bin	5300	0
bin	5400	0
bin	5500	0
scalar LinkDegradation.r1.eth[1].queue droppedPacketsQueueOverflow:count 0
attr interpolationmode none
attr recordingmode count
attr source packetDropReasonIsQueueOverflow(packetDropped)
attr title "dropped packets: queue overflow, count"
attr unit pk
scalar LinkDegradation.r1.eth[1].queue droppedPacketLengthsQueueOverflow:sum 0
attr interpolationmode none
attr recordingmode sum
attr source packetLength(packetDropReasonIsQueueOverflow(packetDropped))
attr title "dropped packet lengths: queue overflow, sum"
attr unit b
par LinkDegradation.r1.eth[1].mac typename "\"inet.linklayer.ethernet.basic.EthernetMac\""
par LinkDegradation.r1.eth[1].mac interfaceTableModule "\"LinkDegradation.r1.interfaceTable\""
par LinkDegradation.r1.eth[1].mac displayStringTextFormat "\"rate: %b\\nsent: %s, rcvd: %r\\nqueue: %q, drop: %d\""
par LinkDegradation.r1.eth[1].mac sendRawBytes false
par LinkDegradation.r1.eth[1].mac promiscuous false
par LinkDegradation.r1.eth[1].mac duplexMode true
par LinkDegradation.r1.eth[1].mac mtu 1500B
attr unit B
par LinkDegradation.r1.eth[1].mac fcsMode "\"declared\""
attr enum declared,computed
par LinkDegradation.r1.eth[1].mac stopOperationExtraTime -1s
attr unit s
par LinkDegradation.r1.eth[1].mac stopOperationTimeout 2s
attr unit s
scalar LinkDegradation.r1.eth[1].mac "simulated time" 60
scalar LinkDegradation.r1.eth[1].mac full-duplex 1
scalar LinkDegradation.r1.eth[1].mac "frames/sec sent" 3.2
scalar LinkDegradation.r1.eth[1].mac "frames/sec rcvd" 0.41666666666667
scalar LinkDegradation.r1.eth[1].mac "bits/sec sent" 5951.2
scalar LinkDegradation.r1.eth[1].mac "bits/sec rcvd" 327.46666666667
[...]
par LinkDegradation.hostB.ipv4.configurator networkConfiguratorModule "\"configurator\""
par LinkDegradation.hostB.ipv4.configurator configureRoutingTable true
par LinkDegradation.hostB.ipv4.routingTable typename "\"inet.networklayer.ipv4.Ipv4RoutingTable\""
par LinkDegradation.hostB.ipv4.routingTable interfaceTableModule "\"LinkDegradation.hostB.interfaceTable\""
par LinkDegradation.hostB.ipv4.routingTable routerId "\"auto\""
par LinkDegradation.hostB.ipv4.routingTable netmaskRoutes "\"*\""
par LinkDegradation.hostB.ipv4.routingTable forwarding false
par LinkDegradation.hostB.ipv4.routingTable multicastForwarding false
par LinkDegradation.hostB.ipv4.routingTable useAdminDist false
par LinkDegradation.hostB.ipv4.routingTable routingFile "\"\""
par LinkDegradation.hostB.ipv4.natTable typename "\"inet.networklayer.ipv4.Ipv4NatTable\""
par LinkDegradation.hostB.ipv4.natTable networkProtocolModule "\"^.ip\""
par LinkDegradation.hostB.ipv4.natTable config "<config/> at content:1"
par LinkDegradation.hostB.ipv4.up typename "\"inet.common.MessageDispatcher\""
par LinkDegradation.hostB.ipv4.up displayStringTextFormat "\"processed %p pk (%l)\""
par LinkDegradation.hostB.ipv4.up forwardServiceRegistration true
par LinkDegradation.hostB.ipv4.up forwardProtocolRegistration true
par LinkDegradation.hostB.ipv4.igmp typename "\"inet.networklayer.ipv4.Igmpv2\""
par LinkDegradation.hostB.ipv4.igmp interfaceTableModule "\"LinkDegradation.hostB.interfaceTable\""
par LinkDegradation.hostB.ipv4.igmp routingTableModule "\"LinkDegradation.hostB.ipv4.routingTable\""
par LinkDegradation.hostB.ipv4.igmp crcMode "\"declared\""
attr enum declared,computed
par LinkDegradation.hostB.ipv4.igmp enabled true
par LinkDegradation.hostB.ipv4.igmp robustnessVariable 2
par LinkDegradation.hostB.ipv4.igmp queryInterval 125s
attr unit s
par LinkDegradation.hostB.ipv4.igmp queryResponseInterval 10s
attr unit s
par LinkDegradation.hostB.ipv4.igmp groupMembershipInterval 260s
attr unit s
par LinkDegradation.hostB.ipv4.igmp otherQuerierPresentInterval 255s
attr unit s
par LinkDegradation.hostB.ipv4.igmp startupQueryInterval 31.25s
attr unit s
par LinkDegradation.hostB.ipv4.igmp startupQueryCount 2
par LinkDegradation.hostB.ipv4.igmp lastMemberQueryInterval 1s
attr unit s
par LinkDegradation.hostB.ipv4.igmp lastMemberQueryCount 2
par LinkDegradation.hostB.ipv4.igmp unsolicitedReportInterval 10s
attr unit s
par LinkDegradation.hostB.ipv4.icmp typename "\"inet.networklayer.ipv4.Icmp\""
par LinkDegradation.hostB.ipv4.icmp interfaceTableModule "\"LinkDegradation.hostB.interfaceTable\""
par LinkDegradation.hostB.ipv4.icmp routingTableModule "\"LinkDegradation.hostB.ipv4.routingTable\""
par LinkDegradation.hostB.ipv4.icmp crcMode "\"declared\""
attr enum declared,computed
attr mutable ""
par LinkDegradation.hostB.ipv4.icmp quoteLength 8B
attr mutable ""
attr unit B
par LinkDegradation.hostB.ipv4.mp typename "\"inet.common.MessageDispatcher\""
par LinkDegradation.hostB.ipv4.mp displayStringTextFormat "\"processed %p pk (%l)\""
par LinkDegradation.hostB.ipv4.mp forwardServiceRegistration true
par LinkDegradation.hostB.ipv4.mp forwardProtocolRegistration true
par LinkDegradation.hostB.ipv4.ip typename "\"inet.networklayer.ipv4.Ipv4\""
par LinkDegradation.hostB.ipv4.ip interfaceTableModule "\"LinkDegradation.hostB.interfaceTable\""
par LinkDegradation.hostB.ipv4.ip routingTableModule "\"LinkDegradation.hostB.ipv4.routingTable\""
par LinkDegradation.hostB.ipv4.ip arpModule "\"LinkDegradation.hostB.ipv4.arp\""
par LinkDegradation.hostB.ipv4.ip icmpModule "\"LinkDegradation.hostB.ipv4.icmp\""
par LinkDegradation.hostB.ipv4.ip crcMode "\"declared\""
attr enum declared,computed
par LinkDegradation.hostB.ipv4.ip timeToLive 32
par LinkDegradation.hostB.ipv4.ip multicastTimeToLive 32
par LinkDegradation.hostB.ipv4.ip fragmentTimeout 60s
attr unit s
par LinkDegradation.hostB.ipv4.ip limitedBroadcast false
par LinkDegradation.hostB.ipv4.ip directBroadcastInterfaces "\"\""
scalar LinkDegradation.hostB.ipv4.ip packetDropAddressResolutionFailed:count 0
attr interpolationmode none
attr recordingmode count
attr source packetDropReasonIsAddressResolutionFailed(packetDropped)
attr title "packet drop: address resolution failed, count"
scalar LinkDegradation.hostB.ipv4.ip packetDropAddressResolutionFailed:sum(packetBytes) 0
attr interpolationmode none
attr recordingmode sum(packetBytes)
attr source packetDropReasonIsAddressResolutionFailed(packetDropped)
attr title "packet drop: address resolution failed, sum(packetBytes)"
scalar LinkDegradation.hostB.ipv4.ip packetDropHopLimitReached:count 0
attr interpolationmode none
attr recordingmode count
attr source packetDropReasonIsHopLimitReached(packetDropped)
attr title "packet drop: hop limit reached, count"
scalar LinkDegradation.hostB.ipv4.ip packetDropHopLimitReached:sum(packetBytes) 0
attr interpolationmode none
attr recordingmode sum(packetBytes)
attr source packetDropReasonIsHopLimitReached(packetDropped)
attr title "packet drop: hop limit reached, sum(packetBytes)"
scalar LinkDegradation.hostB.ipv4.ip packetDropForwardingDisabled:count 0
attr interpolationmode none
attr recordingmode count
attr source packetDropReasonIsForwardingDisabled(packetDropped)
attr title "packet drop: forwarding disabled, count"
scalar LinkDegradation.hostB.ipv4.ip packetDropForwardingDisabled:sum(packetBytes) 0
attr interpolationmode none
attr recordingmode sum(packetBytes)
attr source packetDropReasonIsForwardingDisabled(packetDropped)
attr title "packet drop: forwarding disabled, sum(packetBytes)"
scalar LinkDegradation.hostB.ipv4.ip packetDropNoInterfaceFound:count 0
attr interpolationmode none
attr recordingmode count
attr source packetDropReasonIsNoInterfaceFound(packetDropped)
attr title "packet drop: no interface found, count"
scalar LinkDegradation.hostB.ipv4.ip packetDropNoInterfaceFound:sum(packetBytes) 0
attr interpolationmode none
attr recordingmode sum(packetBytes)
attr source packetDropReasonIsNoInterfaceFound(packetDropped)
attr title "packet drop: no interface found, sum(packetBytes)"
scalar LinkDegradation.hostB.ipv4.ip packetDropNoRouteFound:count 0
attr interpolationmode none
attr recordingmode count
attr source packetDropReasonIsNoRouteFound(packetDropped)
attr title "packet drop: no route found, count"
scalar LinkDegradation.hostB.ipv4.ip packetDropUndefined:count 0
attr interpolationmode none
attr recordingmode count
attr source packetDropReasonIsUndefined(packetDropped)
attr title "packet drop: undefined, count"
scalar LinkDegradation.hostB.ipv4.ip packetDropUndefined:sum(packetBytes) 0
attr interpolationmode none
attr recordingmode sum(packetBytes)
attr source packetDropReasonIsUndefined(packetDropped)
attr title "packet drop: undefined, sum(packetBytes)"
par LinkDegradation.hostB.ipv4.arp typename "\"inet.networklayer.arp.ipv4.Arp\""
par LinkDegradation.hostB.ipv4.arp interfaceTableModule "\"LinkDegradation.hostB.interfaceTable\""
par LinkDegradation.hostB.ipv4.arp routingTableModule "\"LinkDegradation.hostB.ipv4.routingTable\""
par LinkDegradation.hostB.ipv4.arp retryTimeout 1s
attr unit s
par LinkDegradation.hostB.ipv4.arp retryCount 3
par LinkDegradation.hostB.ipv4.arp cacheTimeout 120s
attr unit s
par LinkDegradation.hostB.ipv4.arp proxyArpInterfaces "\"\""
scalar LinkDegradation.hostB.ipv4.arp arpReplySent:count 1
attr recordingmode count
attr source arpReplySent
attr title "ARP replies sent, count"
scalar LinkDegradation.hostB.ipv4.arp arpReplySent:sum(packetBytes) 28
attr recordingmode sum(packetBytes)
attr source arpReplySent
attr title "ARP replies sent, sum(packetBytes)"
scalar LinkDegradation.hostB.ipv4.arp arpRequestSent:count 0
attr recordingmode count
attr source arpRequestSent
attr title "ARP request sent, count"
scalar LinkDegradation.hostB.ipv4.arp arpRequestSent:sum(packetBytes) 0
attr recordingmode sum(packetBytes)
attr source arpRequestSent
attr title "ARP request sent, sum(packetBytes)"
scalar LinkDegradation.hostB.ipv4.arp arpResolutionFailed:count 0
attr recordingmode count
attr title "ARP failed resolutions, count"
scalar LinkDegradation.hostB.ipv4.arp arpResolutionCompleted:count 1
attr recordingmode count
attr title "ARP completed resolutions, count"
scalar LinkDegradation.hostB.ipv4.arp arpResolutionInitiated:count 0
attr recordingmode count
attr title "ARP initiated resolutions, count"
par LinkDegradation.hostB.ipv4.lp typename "\"inet.common.MessageDispatcher\""
par LinkDegradation.hostB.ipv4.lp displayStringTextFormat "\"processed %p pk (%l)\""
par LinkDegradation.hostB.ipv4.lp forwardServiceRegistration true
par LinkDegradation.hostB.ipv4.lp forwardProtocolRegistration true
par LinkDegradation.hostB.ipv4 typename "\"inet.networklayer.ipv4.Ipv4NetworkLayer\""
par LinkDegradation.hostB.ipv4 forwarding false
par LinkDegradation.hostB.ipv4 multicastForwarding false
par LinkDegradation.hostB.ipv4 interfaceTableModule "\"LinkDegradation.hostB.interfaceTable\""
par LinkDegradation.hostB.ipv4 displayStringTextFormat "\"%i\""
par LinkDegradation.hostB.nl typename "\"inet.common.MessageDispatcher\""
par LinkDegradation.hostB.nl displayStringTextFormat "\"processed %p pk (%l)\""
par LinkDegradation.hostB.nl forwardServiceRegistration true
par LinkDegradation.hostB.nl forwardProtocolRegistration true
par LinkDegradation.hostB.udp typename "\"inet.transportlayer.udp.Udp\""
par LinkDegradation.hostB.udp interfaceTableModule "\"LinkDegradation.hostB.interfaceTable\""
par LinkDegradation.hostB.udp icmpModule "\"^.ipv4.icmp\""
par LinkDegradation.hostB.udp icmpv6Module "\"^.ipv6.icmpv6\""
par LinkDegradation.hostB.udp crcMode "\"declared\""
attr enum disabled,declared,computed
par LinkDegradation.hostB.udp defaultMulticastLoop true
scalar LinkDegradation.hostB.udp packetReceived:count 237
attr interpolationmode none
attr recordingmode count
attr source packetReceived
attr title "packets received, count"
scalar LinkDegradation.hostB.udp packetReceived:sum(packetBytes) 51432
attr interpolationmode none
attr recordingmode sum(packetBytes)
attr source packetReceived
attr title "packets received, sum(packetBytes)"
scalar LinkDegradation.hostB.udp packetSent:count 0
attr interpolationmode none
attr recordingmode count
attr source packetSent
attr title "packets sent, count"
scalar LinkDegradation.hostB.udp packetSent:sum(packetBytes) 0
attr interpolationmode none
attr recordingmode sum(packetBytes)
attr source packetSent
attr title "packets sent, sum(packetBytes)"
scalar LinkDegradation.hostB.udp passedUpPk:count 237
attr interpolationmode none
attr recordingmode count
attr source packetSentToUpper
attr title "packets passed up, count"
scalar LinkDegradation.hostB.udp droppedPkWrongPort:count 0
attr interpolationmode none
attr recordingmode count
attr source packetDropReasonIsNoPortFound(packetDropped)
attr title "packets dropped (wrong port), count"
scalar LinkDegradation.hostB.udp droppedPkBadChecksum:count 0
attr interpolationmode none
attr recordingmode count
attr source packetDropReasonIsIncorrectlyReceived(packetDropped)
attr title "packets dropped (checksum error), count"
par LinkDegradation.hostB.tcp typename "\"inet.transportlayer.tcp.Tcp\""
par LinkDegradation.hostB.tcp crcMode "\"declared\""
attr enum declared,computed
par LinkDegradation.hostB.tcp advertisedWindow 7504
par LinkDegradation.hostB.tcp delayedAcksEnabled false
par LinkDegradation.hostB.tcp nagleEnabled true
par LinkDegradation.hostB.tcp limitedTransmitEnabled false
par LinkDegradation.hostB.tcp increasedIWEnabled false
par LinkDegradation.hostB.tcp sackSupport false
par LinkDegradation.hostB.tcp windowScalingSupport false
par LinkDegradation.hostB.tcp windowScalingFactor -1
par LinkDegradation.hostB.tcp timestampSupport false
par LinkDegradation.hostB.tcp mss 536
par LinkDegradation.hostB.tcp msl 120s
attr unit s
par LinkDegradation.hostB.tcp tcpAlgorithmClass "\"TcpReno\""
par LinkDegradation.hostB.tcp useDataNotification false
par LinkDegradation.hostB.tcp dupthresh 3
par LinkDegradation.hostB.tcp initialSsthresh 4294967295
par LinkDegradation.hostB.tcp stopOperationExtraTime 0s
attr unit s
par LinkDegradation.hostB.tcp stopOperationTimeout 2s
attr unit s
par LinkDegradation.hostB.tcp ecnWillingness false
par LinkDegradation.hostB.tcp dctcpGamma 0.0625
par LinkDegradation.hostB.tn typename "\"inet.common.MessageDispatcher\""
par LinkDegradation.hostB.tn displayStringTextFormat "\"processed %p pk (%l)\""
par LinkDegradation.hostB.tn forwardServiceRegistration true
par LinkDegradation.hostB.tn forwardProtocolRegistration true
par LinkDegradation.hostB.app[0] typename "\"inet.applications.udpapp.UdpSink\""
par LinkDegradation.hostB.app[0] interfaceTableModule "\"LinkDegradation.hostB.interfaceTable\""
par LinkDegradation.hostB.app[0] startTime 0s
attr unit s
par LinkDegradation.hostB.app[0] stopTime -1s
attr unit s
par LinkDegradation.hostB.app[0] localPort 5000
par LinkDegradation.hostB.app[0] receiveBroadcast false
par LinkDegradation.hostB.app[0] multicastGroup "\"\""
par LinkDegradation.hostB.app[0] multicastSources "\"\""
par LinkDegradation.hostB.app[0] stopOperationExtraTime -1s
attr unit s
par LinkDegradation.hostB.app[0] stopOperationTimeout 2s
attr unit s
scalar LinkDegradation.hostB.app[0] packetReceived:count 50
attr interpolationmode none
attr recordingmode count
attr source packetReceived
attr title "packets received, count"
statistic LinkDegradation.hostB.app[0] endToEndDelay:histogram
field count 50
field mean 0.0117822702
field stddev 0.015085498598482
field min 0.00018152
field max 0.04018142
field sum 0.58911351
field sqrsum 0.018092135683566
attr interpolationmode none
attr recordingmode histogram
attr source dataAge(packetReceived)
attr title "end-to-end delay"
attr unit s
bin	-inf	0
bin	0	26
bin	0.001	0
bin	0.002	1
bin	0.003	0
bin	0.004	1
bin	0.005	0
bin	0.006	1
bin	0.007	0
bin	0.008	1
bin	0.009	0
bin	0.01	1
bin	0.011	0
bin	0.012	1
bin	0.013	0
bin	0.014	1
bin	0.015	0
bin	0.016	1
bin	0.017	0
bin	0.018	1
bin	0.019	0
bin	0.02	1
bin	0.021	0
bin	0.022	1
bin	0.023	0
bin	0.024	1
bin	0.025	0
bin	0.026	1
bin	0.027	0
bin	0.028	1
bin	0.029	0
bin	0.03	1
bin	0.031	0
bin	0.032	1
bin	0.033	0
bin	0.034	1
bin	0.035	0
bin	0.036	1
bin	0.037	0
bin	0.038	1
bin	0.039	0
bin	0.04	5
bin	0.041	0
bin	0.042	0
bin	0.043	0
bin	0.044	0
bin	0.045	0
bin	0.046	0
bin	0.047	0
bin	0.048	0
bin	0.049	0
bin	0.05	0
bin	0.051	0
par LinkDegradation.hostB.app[1] typename "\"inet.applications.udpapp.UdpSink\""
par LinkDegradation.hostB.app[1] interfaceTableModule "\"LinkDegradation.hostB.interfaceTable\""
par LinkDegradation.hostB.app[1] startTime 0s
attr unit s
par LinkDegradation.hostB.app[1] stopTime -1s
attr unit s
par LinkDegradation.hostB.app[1] localPort 5001
par LinkDegradation.hostB.app[1] receiveBroadcast false
par LinkDegradation.hostB.app[1] multicastGroup "\"\""
par LinkDegradation.hostB.app[1] multicastSources "\"\""
par LinkDegradation.hostB.app[1] stopOperationExtraTime -1s
attr unit s
par LinkDegradation.hostB.app[1] stopOperationTimeout 2s
attr unit s
scalar LinkDegradation.hostB.app[1] packetReceived:count 187
attr interpolationmode none
attr recordingmode count
attr source packetReceived
attr title "packets received, count"
statistic LinkDegradation.hostB.app[1] endToEndDelay:histogram
field count 187
field mean 0.011979615628342
field stddev 0.015078755330226
field min 5.864e-05
field max 0.04019694
field sum 2.2401881225
field sqrsum 0.069127201032169
attr interpolationmode none
attr recordingmode histogram
attr source dataAge(packetReceived)
attr title "end-to-end delay"
attr unit s
bin	-inf	0
bin	0	94
bin	0.001	2
bin	0.002	2
bin	0.003	2
bin	0.004	2
bin	0.005	2
bin	0.006	2
bin	0.007	2
bin	0.008	2
bin	0.009	2
bin	0.01	2
bin	0.011	2
bin	0.012	2
bin	0.013	2
bin	0.014	1
bin	0.015	2
bin	0.016	2
bin	0.017	1
bin	0.018	2
bin	0.019	2
bin	0.02	2
bin	0.021	2
bin	0.022	2
bin	0.023	2
bin	0.024	2
bin	0.025	2
bin	0.026	1
bin	0.027	2
bin	0.028	2
bin	0.029	2
bin	0.03	2
bin	0.031	2
bin	0.032	2
bin	0.033	2
bin	0.034	2
bin	0.035	2
bin	0.036	2
bin	0.037	2
bin	0.038	2
bin	0.039	2
bin	0.04	18
bin	0.041	0
bin	0.042	0
bin	0.043	0
bin	0.044	0
bin	0.045	0
bin	0.046	0
bin	0.047	0
bin	0.048	0
bin	0.049	0
bin	0.05	0
bin	0.051	0
par LinkDegradation.hostB.at typename "\"inet.common.MessageDispatcher\""
par LinkDegradation.hostB.at displayStringTextFormat "\"processed %p pk (%l)\""
par LinkDegradation.hostB.at forwardServiceRegistration true
par LinkDegradation.hostB.at forwardProtocolRegistration true
par LinkDegradation.hostB typename "\"inet.node.inet.StandardHost\""
par LinkDegradation.hostB hasStatus false
par LinkDegradation.hostB osgModel "\"\""
par LinkDegradation.hostB osgModelColor "\"\""
par LinkDegradation.hostB canvasImage "\"\""
par LinkDegradation.hostB canvasImageColor "\"\""
par LinkDegradation.hostB recordPcap false
par LinkDegradation.hostB numPcapRecorders 0
par LinkDegradation.hostB numLoInterfaces 1
par LinkDegradation.hostB numWlanInterfaces 0
par LinkDegradation.hostB numEthInterfaces 0
par LinkDegradation.hostB numPppInterfaces 0
par LinkDegradation.hostB numTunInterfaces 0
par LinkDegradation.hostB numVirtInterfaces 0
par LinkDegradation.hostB fcsMode "\"declared\""
attr enum declared,computed
par LinkDegradation.hostB hasIpv4 true
par LinkDegradation.hostB hasIpv6 false
par LinkDegradation.hostB hasGn false
par LinkDegradation.hostB forwarding false
par LinkDegradation.hostB multicastForwarding false
par LinkDegradation.hostB hasUdp true
par LinkDegradation.hostB hasTcp true
par LinkDegradation.hostB hasSctp false
par LinkDegradation.hostB numApps 2
par LinkDegradation.configurator typename "\"inet.networklayer.configurator.ipv4.Ipv4NetworkConfigurator\""
par LinkDegradation.configurator minLinkWeight 0.001
par LinkDegradation.configurator configureIsolatedNetworksSeparatly false
par LinkDegradation.configurator config "<config>...</config> at content:1"
par LinkDegradation.configurator assignAddresses true
par LinkDegradation.configurator assignUniqueAddresses true
par LinkDegradation.configurator assignDisjunctSubnetAddresses true
par LinkDegradation.configurator addStaticRoutes false
par LinkDegradation.configurator addDefaultRoutes false
par LinkDegradation.configurator addSubnetRoutes true
par LinkDegradation.configurator addDirectRoutes true
par LinkDegradation.configurator optimizeRoutes true
par LinkDegradation.configurator dumpTopology false
par LinkDegradation.configurator dumpLinks false
par LinkDegradation.configurator dumpAddresses false
par LinkDegradation.configurator dumpRoutes false
par LinkDegradation.configurator dumpConfig "\"\""
par LinkDegradation.scenarioManager typename "\"inet.common.scenario.ScenarioManager\""
par LinkDegradation.scenarioManager script "<script>...</script> at content:1"
par LinkDegradation.degradationController typename "\"dissertationsim.controller.LinkDegradationController\""
par LinkDegradation.degradationController firstInterfaceModule "\"^.r2.eth[1]\""
par LinkDegradation.degradationController secondInterfaceModule "\"^.r3.eth[0]\""
par LinkDegradation.degradationController profile "\"strongLinear\""
par LinkDegradation.degradationController startTime 20s
attr unit s
par LinkDegradation.degradationController endTime 40s
attr unit s
par LinkDegradation.degradationController updateInterval 0.5s
attr unit s
par LinkDegradation.degradationController targetDelay 0.04s
attr unit s
par LinkDegradation.degradationController targetPacketErrorRate 0.08
par LinkDegradation typename "\"dissertationsim.simulations.linkdegradation.LinkDegradation\""

