version 3
run UnstableLinear-0-20260421-13:12:55-17912
attr configname UnstableLinear
attr datetime 20260421-13:12:55
attr datetimef 20260421-131255
attr experiment UnstableLinear
attr inifile omnetpp.ini
attr iterationvars ""
attr iterationvarsd ""
attr iterationvarsf ""
attr measurement ""
attr network dissertationsim.simulations.linkdegradation.LinkDegradation
attr processid 17912
attr repetition 0
attr replication #0
attr resultdir results
attr runnumber 0
attr seedset 0
config image-path ../../../inet4.5/images
config description "Overall upward delay and PER trend with deterministic oscillations on r2-r3 before hard failure at 45s"
config **.degradationController.profile "\"unstableLinear\""
config **.degradationController.targetDelay 25ms
config **.degradationController.targetPacketErrorRate 0.05
config network dissertationsim.simulations.linkdegradation.LinkDegradation
config sim-time-limit 60s
config output-scalar-file ../../results/linkdegradation/eval/UnstableLinear-0.sca
config output-vector-file ../../results/linkdegradation/eval/UnstableLinear-0.vec
config eventlog-file ../../results/linkdegradation/debug/UnstableLinear-0.elog
config record-eventlog false
config **.ospf.ospfConfig "xmldoc(\"ASConfig.xml\")"
config **.hostA.numApps 2
config **.hostB.numApps 2
config **.hostA.app[0].typename UdpBasicApp
config **.hostA.app[0].destAddresses "\"hostB\""
config **.hostA.app[0].destPort 5000
config **.hostA.app[0].messageLength 512B
config **.hostA.app[0].sendInterval 1s
config **.hostA.app[0].startTime 10s
config **.hostA.app[1].typename UdpBasicApp
config **.hostA.app[1].destAddresses "\"hostB\""
config **.hostA.app[1].destPort 5001
config **.hostA.app[1].messageLength 128B
config **.hostA.app[1].sendInterval 250ms
config **.hostA.app[1].startTime 12s
config **.hostB.app[0].typename UdpSink
config **.hostB.app[0].localPort 5000
config **.hostB.app[1].typename UdpSink
config **.hostB.app[1].localPort 5001
config **.degradationController.firstInterfaceModule "\"^.r2.eth[1]\""
config **.degradationController.secondInterfaceModule "\"^.r3.eth[0]\""
config **.degradationController.startTime 20s
config **.degradationController.endTime 40s
config **.degradationController.updateInterval 0.5s
config **.degradationController.profile "\"mildLinear\""
config **.degradationController.targetDelay 15ms
config **.degradationController.targetPacketErrorRate 0.03
config **.scenarioManager.script "xml(         \"<script>\\n\" +         \"<at t='45s'><disconnect src-module='r2' src-gate='ethg$o[1]'/></at>\\n\" +         \"<at t='45s'><disconnect src-module='r3' src-gate='ethg$o[0]'/></at>\\n\" +         \"</script>\")"
config **.hostA.app[*].packetSent.result-recording-modes count
config **.hostB.app[*].packetReceived.result-recording-modes count
config **.hostB.app[*].throughput.result-recording-modes vector
config **.hostB.app[*].endToEndDelay.result-recording-modes vector
config **.hostB.app[*].rcvdPkSeqNo.result-recording-modes vector
config **.ipv4.ip.packetDropNoRouteFound.result-recording-modes count
config **.ipv4.ip.packetDropInterfaceDown.result-recording-modes count

vector 0 LinkDegradation.hostA.ethernet encapPk:vector(packetBytes) ETV
attr interpolationmode none
attr recordingmode vector(packetBytes)
attr source encapPk
attr title "packets encapsulated, packetBytes"
vector 1 LinkDegradation.hostA.ethernet decapPk:vector(packetBytes) ETV
attr interpolationmode none
attr recordingmode vector(packetBytes)
attr source decapPk
attr title "packets decapsulated, packetBytes"
vector 2 LinkDegradation.hostA.ethernet pauseSent:vector ETV
attr recordingmode vector
attr title "pause sent"
vector 3 LinkDegradation.hostA.lo[0].lo rcvdPkFromHl:vector(packetBytes) ETV
attr interpolationmode none
attr recordingmode vector(packetBytes)
attr source packetReceivedFromUpper
attr title "packets received from higher layer, packetBytes"
vector 4 LinkDegradation.hostA.lo[0].lo passedUpPk:vector(packetBytes) ETV
attr interpolationmode none
attr recordingmode vector(packetBytes)
attr source packetSentToUpper
attr title "packets passed to higher layer, packetBytes"
vector 5 LinkDegradation.hostA.lo[0] packetDropInterfaceDown:vector(packetBytes) ETV
attr interpolationmode none
attr recordingmode vector(packetBytes)
attr source packetDropReasonIsInterfaceDown(packetDropped)
attr title "packet drops: interface down, packetBytes"
vector 6 LinkDegradation.hostA.lo[0] packetDropNoCarrier:vector(packetBytes) ETV
attr interpolationmode none
attr recordingmode vector(packetBytes)
attr source packetDropReasonIsNoCarrier(packetDropped)
attr title "packet drops: no carrier, packetBytes"
vector 7 LinkDegradation.hostA.eth[0].queue queueLength:vector ETV
attr autoWarmupFilter false
attr interpolationmode sample-hold
attr recordingmode vector
attr source "warmup(atomic(constant0(packetPushEnded) + count(packetPushStarted) - count(packetPulled) - count(packetRemoved) - count(packetDropped)))"
attr title "queue length"
attr unit pk
vector 8 LinkDegradation.hostA.eth[0].queue queueBitLength:vector ETV
attr autoWarmupFilter false
attr interpolationmode sample-hold
attr recordingmode vector
attr source "warmup(atomic(constant0(packetPushEnded) + sum(packetLength(packetPushStarted)) - sum(packetLength(packetPulled)) - sum(packetLength(packetRemoved)) - sum(packetLength(packetDropped))))"
attr title "queue bit length"
attr unit b
vector 9 LinkDegradation.hostA.eth[0].queue queueingTime:vector ETV
attr interpolationmode none
attr recordingmode vector
attr source queueingTime(packetPulled)
attr title "queueing times"
attr unit s
vector 10 LinkDegradation.hostA.eth[0].queue incomingPacketLengths:vector ETV
attr interpolationmode none
attr recordingmode vector
attr source packetLength(packetPushStarted)
attr title "incoming packet lengths"
attr unit b
vector 11 LinkDegradation.hostA.eth[0].queue incomingDataRate:vector ETV
attr interpolationmode linear
attr recordingmode vector
attr source throughput(packetPushStarted)
attr title "incoming datarate"
attr unit bps
vector 12 LinkDegradation.hostA.eth[0].queue outgoingPacketLengths:vector ETV
attr interpolationmode none
attr recordingmode vector
attr source packetLength(packetPulled)
attr title "outgoing packet lengths"
attr unit b
vector 13 LinkDegradation.hostA.eth[0].queue outgoingDataRate:vector ETV
attr interpolationmode linear
attr recordingmode vector
attr source throughput(packetPulled)
attr title "outgoing datarate"
attr unit bps
vector 14 LinkDegradation.hostA.eth[0].queue droppedPacketLengthsQueueOverflow:vector ETV
attr interpolationmode none
attr recordingmode vector
attr source packetLength(packetDropReasonIsQueueOverflow(packetDropped))
attr title "dropped packet lengths: queue overflow"
attr unit b
vector 15 LinkDegradation.hostA.eth[0].queue flowQueueingTime:vector ETV
attr interpolationmode none
attr recordingmode vector
attr source queueingTime(demuxFlow(packetPulled))
attr title "flow queueing times"
attr unit s
vector 16 LinkDegradation.hostA.eth[0].queue flowIncomingDataRate:vector ETV
attr interpolationmode linear
attr recordingmode vector
attr source throughput(flowPacketLength(demuxFlow(packetPushStarted)))
attr title "flow specific incoming data rate"
attr unit bps
vector 17 LinkDegradation.hostA.eth[0].queue flowOutgoingDataRate:vector ETV
attr interpolationmode linear
attr recordingmode vector
attr source throughput(flowPacketLength(demuxFlow(packetPulled)))
attr title "flow specific outgoing data rate"
attr unit bps
vector 18 LinkDegradation.hostA.eth[0].mac txPk:vector(packetBytes) ETV
attr interpolationmode none
attr recordingmode vector(packetBytes)
attr source packetSentToLower
attr title "packets transmitted, packetBytes"
vector 19 LinkDegradation.hostA.eth[0].mac rxPkOk:vector(packetBytes) ETV
attr interpolationmode none
attr recordingmode vector(packetBytes)
attr source rxPkOk
attr title "packets received OK, packetBytes"
vector 20 LinkDegradation.hostA.eth[0].mac passedUpPk:vector(packetBytes) ETV
attr interpolationmode none
attr recordingmode vector(packetBytes)
attr source packetSentToUpper
attr title "packets passed to higher layer, packetBytes"
vector 21 LinkDegradation.hostA.eth[0].mac txPausePkUnits:vector ETV
attr interpolationmode none
attr recordingmode vector
attr title "pause units sent"
vector 22 LinkDegradation.hostA.eth[0].mac rxPausePkUnits:vector ETV
attr interpolationmode none
attr recordingmode vector
attr title "pause units received"
vector 23 LinkDegradation.hostA.eth[0].mac packetReceivedFromUpper:vector(packetBytes) ETV
attr interpolationmode none
attr recordingmode vector(packetBytes)
attr source packetReceivedFromUpper
attr title "packet bytes from higher layer, packetBytes"
vector 24 LinkDegradation.hostA.eth[0].mac packetDropIncorrectlyReceived:vector(packetBytes) ETV
attr interpolationmode none
attr recordingmode vector(packetBytes)
attr source packetDropReasonIsIncorrectlyReceived(packetDropped)
attr title "packet drop: incorrectly received, packetBytes"
vector 25 LinkDegradation.hostA.eth[0].mac packetDropInterfaceDown:vector(packetBytes) ETV
attr interpolationmode none
attr recordingmode vector(packetBytes)
attr source packetDropReasonIsInterfaceDown(packetDropped)
attr title "packet drop: interface down, packetBytes"
vector 26 LinkDegradation.hostA.eth[0].mac packetDropNotAddressedToUs:vector(packetBytes) ETV
attr interpolationmode none
attr recordingmode vector(packetBytes)
attr source packetDropReasonIsNotAddressedToUs(packetDropped)
attr title "packet drop: not addressed to us, packetBytes"
vector 27 LinkDegradation.hostA.eth[0] packetDropInterfaceDown:vector(packetBytes) ETV
attr interpolationmode none
attr recordingmode vector(packetBytes)
attr source packetDropReasonIsInterfaceDown(packetDropped)
attr title "packet drops: interface down, packetBytes"
vector 28 LinkDegradation.hostA.eth[0] packetDropNoCarrier:vector(packetBytes) ETV
attr interpolationmode none
attr recordingmode vector(packetBytes)
attr source packetDropReasonIsNoCarrier(packetDropped)
attr title "packet drops: no carrier, packetBytes"
vector 29 LinkDegradation.hostA.ipv4.ip packetDropAddressResolutionFailed:vector(packetBytes) ETV
attr interpolationmode none
attr recordingmode vector(packetBytes)
attr source packetDropReasonIsAddressResolutionFailed(packetDropped)
attr title "packet drop: address resolution failed, packetBytes"
vector 30 LinkDegradation.hostA.ipv4.ip packetDropHopLimitReached:vector(packetBytes) ETV
attr interpolationmode none
attr recordingmode vector(packetBytes)
attr source packetDropReasonIsHopLimitReached(packetDropped)
attr title "packet drop: hop limit reached, packetBytes"
vector 31 LinkDegradation.hostA.ipv4.ip packetDropForwardingDisabled:vector(packetBytes) ETV
attr interpolationmode none
attr recordingmode vector(packetBytes)
attr source packetDropReasonIsForwardingDisabled(packetDropped)
attr title "packet drop: forwarding disabled, packetBytes"
vector 32 LinkDegradation.hostA.ipv4.ip packetDropNoInterfaceFound:vector(packetBytes) ETV
attr interpolationmode none
attr recordingmode vector(packetBytes)
attr source packetDropReasonIsNoInterfaceFound(packetDropped)
attr title "packet drop: no interface found, packetBytes"
vector 33 LinkDegradation.hostA.ipv4.ip packetDropUndefined:vector(packetBytes) ETV
attr interpolationmode none
attr recordingmode vector(packetBytes)
attr source packetDropReasonIsUndefined(packetDropped)
attr title "packet drop: undefined, packetBytes"
vector 34 LinkDegradation.hostA.ipv4.arp arpRequestSent:vector(packetBytes) ETV
attr recordingmode vector(packetBytes)
attr source arpRequestSent
attr title "ARP request sent, packetBytes"
vector 35 LinkDegradation.hostA.ipv4.arp arpReplySent:vector(packetBytes) ETV
attr recordingmode vector(packetBytes)
attr source arpReplySent
attr title "ARP replies sent, packetBytes"
vector 36 LinkDegradation.hostA.udp packetSent:vector(packetBytes) ETV
attr interpolationmode none
attr recordingmode vector(packetBytes)
attr source packetSent
attr title "packets sent, packetBytes"
vector 37 LinkDegradation.hostA.udp packetReceived:vector(packetBytes) ETV
attr interpolationmode none
attr recordingmode vector(packetBytes)
attr source packetReceived
attr title "packets received, packetBytes"
vector 38 LinkDegradation.hostA.udp passedUpPk:vector(count) ETV
attr interpolationmode none
attr recordingmode vector(count)
attr source packetSentToUpper
attr title "packets passed up, count"
vector 39 LinkDegradation.hostA.udp droppedPkWrongPort:vector(count) ETV
attr interpolationmode none
attr recordingmode vector(count)
attr source packetDropReasonIsNoPortFound(packetDropped)
attr title "packets dropped (wrong port), count"
vector 40 LinkDegradation.hostA.udp droppedPkBadChecksum:vector(count) ETV
attr interpolationmode none
attr recordingmode vector(count)
attr source packetDropReasonIsIncorrectlyReceived(packetDropped)
attr title "packets dropped (checksum error), count"
vector 41 LinkDegradation.hostA.app[0] packetReceived:vector(packetBytes) ETV
attr interpolationmode none
attr recordingmode vector(packetBytes)
attr source packetReceived
attr title "packets received, packetBytes"
vector 42 LinkDegradation.hostA.app[0] throughput:vector ETV
attr recordingmode vector
attr source throughput(packetReceived)
attr title throughput
attr unit bps
vector 43 LinkDegradation.hostA.app[0] rcvdPkLifetime:vector ETV
attr interpolationmode none
attr recordingmode vector
attr source dataAge(packetReceived)
attr title "received packet lifetime"
attr unit s
vector 44 LinkDegradation.hostA.app[0] rcvdPkSeqNo:vector ETV
attr interpolationmode none
attr recordingmode vector
attr source appPkSeqNo(packetReceived)
attr title "received packet sequence number"
vector 45 LinkDegradation.hostA.app[1] packetReceived:vector(packetBytes) ETV
attr interpolationmode none
attr recordingmode vector(packetBytes)
attr source packetReceived
attr title "packets received, packetBytes"
vector 46 LinkDegradation.hostA.app[1] throughput:vector ETV
attr recordingmode vector
attr source throughput(packetReceived)
attr title throughput
attr unit bps
vector 47 LinkDegradation.hostA.app[1] rcvdPkLifetime:vector ETV
attr interpolationmode none
attr recordingmode vector
attr source dataAge(packetReceived)
attr title "received packet lifetime"
attr unit s
vector 48 LinkDegradation.hostA.app[1] rcvdPkSeqNo:vector ETV
attr interpolationmode none
attr recordingmode vector
attr source appPkSeqNo(packetReceived)
attr title "received packet sequence number"
vector 49 LinkDegradation.r1.ethernet encapPk:vector(packetBytes) ETV
attr interpolationmode none
attr recordingmode vector(packetBytes)
attr source encapPk
attr title "packets encapsulated, packetBytes"
vector 50 LinkDegradation.r1.ethernet decapPk:vector(packetBytes) ETV
attr interpolationmode none
attr recordingmode vector(packetBytes)
attr source decapPk
attr title "packets decapsulated, packetBytes"
vector 51 LinkDegradation.r1.ethernet pauseSent:vector ETV
attr recordingmode vector
attr title "pause sent"
vector 52 LinkDegradation.r1.lo[0].lo rcvdPkFromHl:vector(packetBytes) ETV
attr interpolationmode none
attr recordingmode vector(packetBytes)
attr source packetReceivedFromUpper
attr title "packets received from higher layer, packetBytes"
vector 53 LinkDegradation.r1.lo[0].lo passedUpPk:vector(packetBytes) ETV
attr interpolationmode none
attr recordingmode vector(packetBytes)
attr source packetSentToUpper
attr title "packets passed to higher layer, packetBytes"
vector 54 LinkDegradation.r1.lo[0] packetDropInterfaceDown:vector(packetBytes) ETV
attr interpolationmode none
attr recordingmode vector(packetBytes)
attr source packetDropReasonIsInterfaceDown(packetDropped)
attr title "packet drops: interface down, packetBytes"
vector 55 LinkDegradation.r1.lo[0] packetDropNoCarrier:vector(packetBytes) ETV
attr interpolationmode none
attr recordingmode vector(packetBytes)
attr source packetDropReasonIsNoCarrier(packetDropped)
attr title "packet drops: no carrier, packetBytes"
vector 56 LinkDegradation.r1.eth[0].queue queueLength:vector ETV
attr autoWarmupFilter false
attr interpolationmode sample-hold
attr recordingmode vector
attr source "warmup(atomic(constant0(packetPushEnded) + count(packetPushStarted) - count(packetPulled) - count(packetRemoved) - count(packetDropped)))"
attr title "queue length"
attr unit pk
vector 57 LinkDegradation.r1.eth[0].queue queueBitLength:vector ETV
attr autoWarmupFilter false
attr interpolationmode sample-hold
attr recordingmode vector
attr source "warmup(atomic(constant0(packetPushEnded) + sum(packetLength(packetPushStarted)) - sum(packetLength(packetPulled)) - sum(packetLength(packetRemoved)) - sum(packetLength(packetDropped))))"
attr title "queue bit length"
attr unit b
vector 58 LinkDegradation.r1.eth[0].queue queueingTime:vector ETV
attr interpolationmode none
attr recordingmode vector
attr source queueingTime(packetPulled)
attr title "queueing times"
attr unit s
vector 59 LinkDegradation.r1.eth[0].queue incomingPacketLengths:vector ETV
attr interpolationmode none
attr recordingmode vector
attr source packetLength(packetPushStarted)
attr title "incoming packet lengths"
attr unit b
vector 60 LinkDegradation.r1.eth[0].queue incomingDataRate:vector ETV
attr interpolationmode linear
attr recordingmode vector
attr source throughput(packetPushStarted)
attr title "incoming datarate"
attr unit bps
vector 61 LinkDegradation.r1.eth[0].queue outgoingPacketLengths:vector ETV
attr interpolationmode none
attr recordingmode vector
attr source packetLength(packetPulled)
attr title "outgoing packet lengths"
attr unit b
vector 62 LinkDegradation.r1.eth[0].queue outgoingDataRate:vector ETV
attr interpolationmode linear
attr recordingmode vector
attr source throughput(packetPulled)
attr title "outgoing datarate"
attr unit bps
vector 63 LinkDegradation.r1.eth[0].queue droppedPacketLengthsQueueOverflow:vector ETV
attr interpolationmode none
attr recordingmode vector
attr source packetLength(packetDropReasonIsQueueOverflow(packetDropped))
attr title "dropped packet lengths: queue overflow"
attr unit b
vector 64 LinkDegradation.r1.eth[0].queue flowQueueingTime:vector ETV
attr interpolationmode none
attr recordingmode vector
attr source queueingTime(demuxFlow(packetPulled))
attr title "flow queueing times"
attr unit s
vector 65 LinkDegradation.r1.eth[0].queue flowIncomingDataRate:vector ETV
attr interpolationmode linear
attr recordingmode vector
attr source throughput(flowPacketLength(demuxFlow(packetPushStarted)))
attr title "flow specific incoming data rate"
attr unit bps
vector 66 LinkDegradation.r1.eth[0].queue flowOutgoingDataRate:vector ETV
attr interpolationmode linear
attr recordingmode vector
attr source throughput(flowPacketLength(demuxFlow(packetPulled)))
attr title "flow specific outgoing data rate"
attr unit bps
vector 67 LinkDegradation.r1.eth[0].mac txPk:vector(packetBytes) ETV
attr interpolationmode none
attr recordingmode vector(packetBytes)
attr source packetSentToLower
attr title "packets transmitted, packetBytes"
vector 68 LinkDegradation.r1.eth[0].mac rxPkOk:vector(packetBytes) ETV
attr interpolationmode none
attr recordingmode vector(packetBytes)
attr source rxPkOk
attr title "packets received OK, packetBytes"
vector 69 LinkDegradation.r1.eth[0].mac passedUpPk:vector(packetBytes) ETV
attr interpolationmode none
attr recordingmode vector(packetBytes)
attr source packetSentToUpper
attr title "packets passed to higher layer, packetBytes"
vector 70 LinkDegradation.r1.eth[0].mac txPausePkUnits:vector ETV
attr interpolationmode none
attr recordingmode vector
attr title "pause units sent"
vector 71 LinkDegradation.r1.eth[0].mac rxPausePkUnits:vector ETV
attr interpolationmode none
attr recordingmode vector
attr title "pause units received"
vector 72 LinkDegradation.r1.eth[0].mac packetReceivedFromUpper:vector(packetBytes) ETV
attr interpolationmode none
attr recordingmode vector(packetBytes)
attr source packetReceivedFromUpper
attr title "packet bytes from higher layer, packetBytes"
vector 73 LinkDegradation.r1.eth[0].mac packetDropIncorrectlyReceived:vector(packetBytes) ETV
attr interpolationmode none
attr recordingmode vector(packetBytes)
attr source packetDropReasonIsIncorrectlyReceived(packetDropped)
attr title "packet drop: incorrectly received, packetBytes"
vector 74 LinkDegradation.r1.eth[0].mac packetDropInterfaceDown:vector(packetBytes) ETV
attr interpolationmode none
attr recordingmode vector(packetBytes)
attr source packetDropReasonIsInterfaceDown(packetDropped)
attr title "packet drop: interface down, packetBytes"
vector 75 LinkDegradation.r1.eth[0].mac packetDropNotAddressedToUs:vector(packetBytes) ETV
attr interpolationmode none
attr recordingmode vector(packetBytes)
attr source packetDropReasonIsNotAddressedToUs(packetDropped)
attr title "packet drop: not addressed to us, packetBytes"
vector 76 LinkDegradation.r1.eth[0] packetDropInterfaceDown:vector(packetBytes) ETV
attr interpolationmode none
attr recordingmode vector(packetBytes)
attr source packetDropReasonIsInterfaceDown(packetDropped)
attr title "packet drops: interface down, packetBytes"
vector 77 LinkDegradation.r1.eth[0] packetDropNoCarrier:vector(packetBytes) ETV
attr interpolationmode none
attr recordingmode vector(packetBytes)
attr source packetDropReasonIsNoCarrier(packetDropped)
attr title "packet drops: no carrier, packetBytes"
vector 78 LinkDegradation.r1.eth[1].queue queueLength:vector ETV
attr autoWarmupFilter false
attr interpolationmode sample-hold
attr recordingmode vector
attr source "warmup(atomic(constant0(packetPushEnded) + count(packetPushStarted) - count(packetPulled) - count(packetRemoved) - count(packetDropped)))"
attr title "queue length"
attr unit pk
vector 79 LinkDegradation.r1.eth[1].queue queueBitLength:vector ETV
attr autoWarmupFilter false
attr interpolationmode sample-hold
attr recordingmode vector
attr source "warmup(atomic(constant0(packetPushEnded) + sum(packetLength(packetPushStarted)) - sum(packetLength(packetPulled)) - sum(packetLength(packetRemoved)) - sum(packetLength(packetDropped))))"
attr title "queue bit length"
attr unit b
vector 80 LinkDegradation.r1.eth[1].queue queueingTime:vector ETV
attr interpolationmode none
attr recordingmode vector
attr source queueingTime(packetPulled)
attr title "queueing times"
attr unit s
vector 81 LinkDegradation.r1.eth[1].queue incomingPacketLengths:vector ETV
attr interpolationmode none
attr recordingmode vector
attr source packetLength(packetPushStarted)
attr title "incoming packet lengths"
attr unit b
vector 82 LinkDegradation.r1.eth[1].queue incomingDataRate:vector ETV
attr interpolationmode linear
attr recordingmode vector
attr source throughput(packetPushStarted)
attr title "incoming datarate"
attr unit bps
vector 83 LinkDegradation.r1.eth[1].queue outgoingPacketLengths:vector ETV
attr interpolationmode none
attr recordingmode vector
attr source packetLength(packetPulled)
attr title "outgoing packet lengths"
attr unit b
vector 84 LinkDegradation.r1.eth[1].queue outgoingDataRate:vector ETV
attr interpolationmode linear
attr recordingmode vector
attr source throughput(packetPulled)
attr title "outgoing datarate"
attr unit bps
vector 85 LinkDegradation.r1.eth[1].queue droppedPacketLengthsQueueOverflow:vector ETV
attr interpolationmode none
attr recordingmode vector
attr source packetLength(packetDropReasonIsQueueOverflow(packetDropped))
attr title "dropped packet lengths: queue overflow"
attr unit b
vector 86 LinkDegradation.r1.eth[1].queue flowQueueingTime:vector ETV
attr interpolationmode none
attr recordingmode vector
attr source queueingTime(demuxFlow(packetPulled))
attr title "flow queueing times"
attr unit s
vector 87 LinkDegradation.r1.eth[1].queue flowIncomingDataRate:vector ETV
attr interpolationmode linear
attr recordingmode vector
attr source throughput(flowPacketLength(demuxFlow(packetPushStarted)))
attr title "flow specific incoming data rate"
attr unit bps
vector 88 LinkDegradation.r1.eth[1].queue flowOutgoingDataRate:vector ETV
attr interpolationmode linear
attr recordingmode vector
attr source throughput(flowPacketLength(demuxFlow(packetPulled)))
attr title "flow specific outgoing data rate"
attr unit bps
vector 89 LinkDegradation.r1.eth[1].mac txPk:vector(packetBytes) ETV
attr interpolationmode none
attr recordingmode vector(packetBytes)
attr source packetSentToLower
attr title "packets transmitted, packetBytes"
vector 90 LinkDegradation.r1.eth[1].mac rxPkOk:vector(packetBytes) ETV
attr interpolationmode none
attr recordingmode vector(packetBytes)
attr source rxPkOk
attr title "packets received OK, packetBytes"
vector 91 LinkDegradation.r1.eth[1].mac passedUpPk:vector(packetBytes) ETV
attr interpolationmode none
attr recordingmode vector(packetBytes)
attr source packetSentToUpper
attr title "packets passed to higher layer, packetBytes"
vector 92 LinkDegradation.r1.eth[1].mac txPausePkUnits:vector ETV
attr interpolationmode none
attr recordingmode vector
attr title "pause units sent"
vector 93 LinkDegradation.r1.eth[1].mac rxPausePkUnits:vector ETV
attr interpolationmode none
attr recordingmode vector
attr title "pause units received"
vector 94 LinkDegradation.r1.eth[1].mac packetReceivedFromUpper:vector(packetBytes) ETV
attr interpolationmode none
attr recordingmode vector(packetBytes)
attr source packetReceivedFromUpper
attr title "packet bytes from higher layer, packetBytes"
vector 95 LinkDegradation.r1.eth[1].mac packetDropIncorrectlyReceived:vector(packetBytes) ETV
attr interpolationmode none
attr recordingmode vector(packetBytes)
attr source packetDropReasonIsIncorrectlyReceived(packetDropped)
attr title "packet drop: incorrectly received, packetBytes"
vector 96 LinkDegradation.r1.eth[1].mac packetDropInterfaceDown:vector(packetBytes) ETV
attr interpolationmode none
attr recordingmode vector(packetBytes)
attr source packetDropReasonIsInterfaceDown(packetDropped)
attr title "packet drop: interface down, packetBytes"
vector 97 LinkDegradation.r1.eth[1].mac packetDropNotAddressedToUs:vector(packetBytes) ETV
attr interpolationmode none
attr recordingmode vector(packetBytes)
attr source packetDropReasonIsNotAddressedToUs(packetDropped)
attr title "packet drop: not addressed to us, packetBytes"
vector 98 LinkDegradation.r1.eth[1] packetDropInterfaceDown:vector(packetBytes) ETV
attr interpolationmode none
attr recordingmode vector(packetBytes)
attr source packetDropReasonIsInterfaceDown(packetDropped)
attr title "packet drops: interface down, packetBytes"
vector 99 LinkDegradation.r1.eth[1] packetDropNoCarrier:vector(packetBytes) ETV
attr interpolationmode none
attr recordingmode vector(packetBytes)
attr source packetDropReasonIsNoCarrier(packetDropped)
attr title "packet drops: no carrier, packetBytes"
vector 100 LinkDegradation.r1.eth[2].queue queueLength:vector ETV
attr autoWarmupFilter false
attr interpolationmode sample-hold
attr recordingmode vector
attr source "warmup(atomic(constant0(packetPushEnded) + count(packetPushStarted) - count(packetPulled) - count(packetRemoved) - count(packetDropped)))"
attr title "queue length"
attr unit pk
vector 101 LinkDegradation.r1.eth[2].queue queueBitLength:vector ETV
attr autoWarmupFilter false
attr interpolationmode sample-hold
attr recordingmode vector
attr source "warmup(atomic(constant0(packetPushEnded) + sum(packetLength(packetPushStarted)) - sum(packetLength(packetPulled)) - sum(packetLength(packetRemoved)) - sum(packetLength(packetDropped))))"
attr title "queue bit length"
attr unit b
vector 102 LinkDegradation.r1.eth[2].queue queueingTime:vector ETV
attr interpolationmode none
attr recordingmode vector
attr source queueingTime(packetPulled)
attr title "queueing times"
attr unit s
vector 103 LinkDegradation.r1.eth[2].queue incomingPacketLengths:vector ETV
attr interpolationmode none
attr recordingmode vector
attr source packetLength(packetPushStarted)
attr title "incoming packet lengths"
attr unit b
vector 104 LinkDegradation.r1.eth[2].queue incomingDataRate:vector ETV
attr interpolationmode linear
attr recordingmode vector
attr source throughput(packetPushStarted)
attr title "incoming datarate"
attr unit bps
vector 105 LinkDegradation.r1.eth[2].queue outgoingPacketLengths:vector ETV
attr interpolationmode none
attr recordingmode vector
attr source packetLength(packetPulled)
attr title "outgoing packet lengths"
attr unit b
vector 106 LinkDegradation.r1.eth[2].queue outgoingDataRate:vector ETV
attr interpolationmode linear
attr recordingmode vector
attr source throughput(packetPulled)
attr title "outgoing datarate"
attr unit bps
vector 107 LinkDegradation.r1.eth[2].queue droppedPacketLengthsQueueOverflow:vector ETV
attr interpolationmode none
attr recordingmode vector
attr source packetLength(packetDropReasonIsQueueOverflow(packetDropped))
attr title "dropped packet lengths: queue overflow"
attr unit b
vector 108 LinkDegradation.r1.eth[2].queue flowQueueingTime:vector ETV
attr interpolationmode none
attr recordingmode vector
attr source queueingTime(demuxFlow(packetPulled))
attr title "flow queueing times"
attr unit s
vector 109 LinkDegradation.r1.eth[2].queue flowIncomingDataRate:vector ETV
attr interpolationmode linear
attr recordingmode vector
attr source throughput(flowPacketLength(demuxFlow(packetPushStarted)))
attr title "flow specific incoming data rate"
attr unit bps
vector 110 LinkDegradation.r1.eth[2].queue flowOutgoingDataRate:vector ETV
attr interpolationmode linear
attr recordingmode vector
attr source throughput(flowPacketLength(demuxFlow(packetPulled)))
attr title "flow specific outgoing data rate"
attr unit bps
vector 111 LinkDegradation.r1.eth[2].mac txPk:vector(packetBytes) ETV
attr interpolationmode none
attr recordingmode vector(packetBytes)
attr source packetSentToLower
attr title "packets transmitted, packetBytes"
vector 112 LinkDegradation.r1.eth[2].mac rxPkOk:vector(packetBytes) ETV
attr interpolationmode none
attr recordingmode vector(packetBytes)
attr source rxPkOk
attr title "packets received OK, packetBytes"
vector 113 LinkDegradation.r1.eth[2].mac passedUpPk:vector(packetBytes) ETV
attr interpolationmode none
attr recordingmode vector(packetBytes)
attr source packetSentToUpper
attr title "packets passed to higher layer, packetBytes"
vector 114 LinkDegradation.r1.eth[2].mac txPausePkUnits:vector ETV
attr interpolationmode none
attr recordingmode vector
attr title "pause units sent"
vector 115 LinkDegradation.r1.eth[2].mac rxPausePkUnits:vector ETV
attr interpolationmode none
attr recordingmode vector
attr title "pause units received"
vector 116 LinkDegradation.r1.eth[2].mac packetReceivedFromUpper:vector(packetBytes) ETV
attr interpolationmode none
attr recordingmode vector(packetBytes)
attr source packetReceivedFromUpper
attr title "packet bytes from higher layer, packetBytes"
vector 117 LinkDegradation.r1.eth[2].mac packetDropIncorrectlyReceived:vector(packetBytes) ETV
attr interpolationmode none
attr recordingmode vector(packetBytes)
attr source packetDropReasonIsIncorrectlyReceived(packetDropped)
attr title "packet drop: incorrectly received, packetBytes"
vector 118 LinkDegradation.r1.eth[2].mac packetDropInterfaceDown:vector(packetBytes) ETV
attr interpolationmode none
attr recordingmode vector(packetBytes)
attr source packetDropReasonIsInterfaceDown(packetDropped)
attr title "packet drop: interface down, packetBytes"
vector 119 LinkDegradation.r1.eth[2].mac packetDropNotAddressedToUs:vector(packetBytes) ETV
attr interpolationmode none
attr recordingmode vector(packetBytes)
attr source packetDropReasonIsNotAddressedToUs(packetDropped)
attr title "packet drop: not addressed to us, packetBytes"
vector 120 LinkDegradation.r1.eth[2] packetDropInterfaceDown:vector(packetBytes) ETV
attr interpolationmode none
attr recordingmode vector(packetBytes)
attr source packetDropReasonIsInterfaceDown(packetDropped)
attr title "packet drops: interface down, packetBytes"
vector 121 LinkDegradation.r1.eth[2] packetDropNoCarrier:vector(packetBytes) ETV
attr interpolationmode none
attr recordingmode vector(packetBytes)
attr source packetDropReasonIsNoCarrier(packetDropped)
attr title "packet drops: no carrier, packetBytes"
vector 122 LinkDegradation.r1.ipv4.ip packetDropAddressResolutionFailed:vector(packetBytes) ETV
attr interpolationmode none
attr recordingmode vector(packetBytes)
attr source packetDropReasonIsAddressResolutionFailed(packetDropped)
attr title "packet drop: address resolution failed, packetBytes"
vector 123 LinkDegradation.r1.ipv4.ip packetDropHopLimitReached:vector(packetBytes) ETV
attr interpolationmode none
attr recordingmode vector(packetBytes)
attr source packetDropReasonIsHopLimitReached(packetDropped)
attr title "packet drop: hop limit reached, packetBytes"
vector 124 LinkDegradation.r1.ipv4.ip packetDropForwardingDisabled:vector(packetBytes) ETV
attr interpolationmode none
attr recordingmode vector(packetBytes)
attr source packetDropReasonIsForwardingDisabled(packetDropped)
attr title "packet drop: forwarding disabled, packetBytes"
vector 125 LinkDegradation.r1.ipv4.ip packetDropNoInterfaceFound:vector(packetBytes) ETV
attr interpolationmode none
attr recordingmode vector(packetBytes)
attr source packetDropReasonIsNoInterfaceFound(packetDropped)
attr title "packet drop: no interface found, packetBytes"
vector 126 LinkDegradation.r1.ipv4.ip packetDropUndefined:vector(packetBytes) ETV
attr interpolationmode none
attr recordingmode vector(packetBytes)
attr source packetDropReasonIsUndefined(packetDropped)
attr title "packet drop: undefined, packetBytes"
vector 127 LinkDegradation.r1.ipv4.arp arpRequestSent:vector(packetBytes) ETV
attr recordingmode vector(packetBytes)
attr source arpRequestSent
attr title "ARP request sent, packetBytes"
vector 128 LinkDegradation.r1.ipv4.arp arpReplySent:vector(packetBytes) ETV
attr recordingmode vector(packetBytes)
attr source arpReplySent
attr title "ARP replies sent, packetBytes"
vector 129 LinkDegradation.r2.ethernet encapPk:vector(packetBytes) ETV
attr interpolationmode none
attr recordingmode vector(packetBytes)
attr source encapPk
attr title "packets encapsulated, packetBytes"
vector 130 LinkDegradation.r2.ethernet decapPk:vector(packetBytes) ETV
attr interpolationmode none
attr recordingmode vector(packetBytes)
attr source decapPk
attr title "packets decapsulated, packetBytes"
vector 131 LinkDegradation.r2.ethernet pauseSent:vector ETV
attr recordingmode vector
attr title "pause sent"
vector 132 LinkDegradation.r2.lo[0].lo rcvdPkFromHl:vector(packetBytes) ETV
attr interpolationmode none
attr recordingmode vector(packetBytes)
attr source packetReceivedFromUpper
attr title "packets received from higher layer, packetBytes"
vector 133 LinkDegradation.r2.lo[0].lo passedUpPk:vector(packetBytes) ETV
attr interpolationmode none
attr recordingmode vector(packetBytes)
attr source packetSentToUpper
attr title "packets passed to higher layer, packetBytes"
vector 134 LinkDegradation.r2.lo[0] packetDropInterfaceDown:vector(packetBytes) ETV
attr interpolationmode none
attr recordingmode vector(packetBytes)
attr source packetDropReasonIsInterfaceDown(packetDropped)
attr title "packet drops: interface down, packetBytes"
vector 135 LinkDegradation.r2.lo[0] packetDropNoCarrier:vector(packetBytes) ETV
attr interpolationmode none
attr recordingmode vector(packetBytes)
attr source packetDropReasonIsNoCarrier(packetDropped)
attr title "packet drops: no carrier, packetBytes"
vector 136 LinkDegradation.r2.eth[0].queue queueLength:vector ETV
attr autoWarmupFilter false
attr interpolationmode sample-hold
attr recordingmode vector
attr source "warmup(atomic(constant0(packetPushEnded) + count(packetPushStarted) - count(packetPulled) - count(packetRemoved) - count(packetDropped)))"
attr title "queue length"
attr unit pk
vector 137 LinkDegradation.r2.eth[0].queue queueBitLength:vector ETV
attr autoWarmupFilter false
attr interpolationmode sample-hold
attr recordingmode vector
attr source "warmup(atomic(constant0(packetPushEnded) + sum(packetLength(packetPushStarted)) - sum(packetLength(packetPulled)) - sum(packetLength(packetRemoved)) - sum(packetLength(packetDropped))))"
attr title "queue bit length"
attr unit b
vector 138 LinkDegradation.r2.eth[0].queue queueingTime:vector ETV
attr interpolationmode none
attr recordingmode vector
attr source queueingTime(packetPulled)
attr title "queueing times"
attr unit s
vector 139 LinkDegradation.r2.eth[0].queue incomingPacketLengths:vector ETV
attr interpolationmode none
attr recordingmode vector
attr source packetLength(packetPushStarted)
attr title "incoming packet lengths"
attr unit b
vector 140 LinkDegradation.r2.eth[0].queue incomingDataRate:vector ETV
attr interpolationmode linear
attr recordingmode vector
attr source throughput(packetPushStarted)
attr title "incoming datarate"
attr unit bps
vector 141 LinkDegradation.r2.eth[0].queue outgoingPacketLengths:vector ETV
attr interpolationmode none
attr recordingmode vector
attr source packetLength(packetPulled)
attr title "outgoing packet lengths"
attr unit b
vector 142 LinkDegradation.r2.eth[0].queue outgoingDataRate:vector ETV
attr interpolationmode linear
attr recordingmode vector
attr source throughput(packetPulled)
attr title "outgoing datarate"
attr unit bps
vector 143 LinkDegradation.r2.eth[0].queue droppedPacketLengthsQueueOverflow:vector ETV
attr interpolationmode none
attr recordingmode vector
attr source packetLength(packetDropReasonIsQueueOverflow(packetDropped))
attr title "dropped packet lengths: queue overflow"
attr unit b
vector 144 LinkDegradation.r2.eth[0].queue flowQueueingTime:vector ETV
attr interpolationmode none
attr recordingmode vector
attr source queueingTime(demuxFlow(packetPulled))
attr title "flow queueing times"
attr unit s
vector 145 LinkDegradation.r2.eth[0].queue flowIncomingDataRate:vector ETV
attr interpolationmode linear
attr recordingmode vector
attr source throughput(flowPacketLength(demuxFlow(packetPushStarted)))
attr title "flow specific incoming data rate"
attr unit bps
vector 146 LinkDegradation.r2.eth[0].queue flowOutgoingDataRate:vector ETV
attr interpolationmode linear
attr recordingmode vector
attr source throughput(flowPacketLength(demuxFlow(packetPulled)))
attr title "flow specific outgoing data rate"
attr unit bps
vector 147 LinkDegradation.r2.eth[0].mac txPk:vector(packetBytes) ETV
attr interpolationmode none
attr recordingmode vector(packetBytes)
attr source packetSentToLower
attr title "packets transmitted, packetBytes"
vector 148 LinkDegradation.r2.eth[0].mac rxPkOk:vector(packetBytes) ETV
attr interpolationmode none
attr recordingmode vector(packetBytes)
attr source rxPkOk
attr title "packets received OK, packetBytes"
vector 149 LinkDegradation.r2.eth[0].mac passedUpPk:vector(packetBytes) ETV
attr interpolationmode none
attr recordingmode vector(packetBytes)
attr source packetSentToUpper
attr title "packets passed to higher layer, packetBytes"
vector 150 LinkDegradation.r2.eth[0].mac txPausePkUnits:vector ETV
attr interpolationmode none
attr recordingmode vector
attr title "pause units sent"
vector 151 LinkDegradation.r2.eth[0].mac rxPausePkUnits:vector ETV
attr interpolationmode none
attr recordingmode vector
attr title "pause units received"
vector 152 LinkDegradation.r2.eth[0].mac packetReceivedFromUpper:vector(packetBytes) ETV
attr interpolationmode none
attr recordingmode vector(packetBytes)
attr source packetReceivedFromUpper
attr title "packet bytes from higher layer, packetBytes"
vector 153 LinkDegradation.r2.eth[0].mac packetDropIncorrectlyReceived:vector(packetBytes) ETV
attr interpolationmode none
attr recordingmode vector(packetBytes)
attr source packetDropReasonIsIncorrectlyReceived(packetDropped)
attr title "packet drop: incorrectly received, packetBytes"
vector 154 LinkDegradation.r2.eth[0].mac packetDropInterfaceDown:vector(packetBytes) ETV
attr interpolationmode none
attr recordingmode vector(packetBytes)
attr source packetDropReasonIsInterfaceDown(packetDropped)
attr title "packet drop: interface down, packetBytes"
vector 155 LinkDegradation.r2.eth[0].mac packetDropNotAddressedToUs:vector(packetBytes) ETV
attr interpolationmode none
attr recordingmode vector(packetBytes)
attr source packetDropReasonIsNotAddressedToUs(packetDropped)
attr title "packet drop: not addressed to us, packetBytes"
vector 156 LinkDegradation.r2.eth[0] packetDropInterfaceDown:vector(packetBytes) ETV
attr interpolationmode none
attr recordingmode vector(packetBytes)
attr source packetDropReasonIsInterfaceDown(packetDropped)
attr title "packet drops: interface down, packetBytes"
vector 157 LinkDegradation.r2.eth[0] packetDropNoCarrier:vector(packetBytes) ETV
attr interpolationmode none
attr recordingmode vector(packetBytes)
attr source packetDropReasonIsNoCarrier(packetDropped)
attr title "packet drops: no carrier, packetBytes"
vector 158 LinkDegradation.r2.eth[1].queue queueLength:vector ETV
attr autoWarmupFilter false
attr interpolationmode sample-hold
attr recordingmode vector
attr source "warmup(atomic(constant0(packetPushEnded) + count(packetPushStarted) - count(packetPulled) - count(packetRemoved) - count(packetDropped)))"
attr title "queue length"
attr unit pk
vector 159 LinkDegradation.r2.eth[1].queue queueBitLength:vector ETV
attr autoWarmupFilter false
attr interpolationmode sample-hold
attr recordingmode vector
attr source "warmup(atomic(constant0(packetPushEnded) + sum(packetLength(packetPushStarted)) - sum(packetLength(packetPulled)) - sum(packetLength(packetRemoved)) - sum(packetLength(packetDropped))))"
attr title "queue bit length"
attr unit b
vector 160 LinkDegradation.r2.eth[1].queue queueingTime:vector ETV
attr interpolationmode none
attr recordingmode vector
attr source queueingTime(packetPulled)
attr title "queueing times"
attr unit s
vector 161 LinkDegradation.r2.eth[1].queue incomingPacketLengths:vector ETV
attr interpolationmode none
attr recordingmode vector
attr source packetLength(packetPushStarted)
attr title "incoming packet lengths"
attr unit b
vector 162 LinkDegradation.r2.eth[1].queue incomingDataRate:vector ETV
attr interpolationmode linear
attr recordingmode vector
attr source throughput(packetPushStarted)
attr title "incoming datarate"
attr unit bps
vector 163 LinkDegradation.r2.eth[1].queue outgoingPacketLengths:vector ETV
attr interpolationmode none
attr recordingmode vector
attr source packetLength(packetPulled)
attr title "outgoing packet lengths"
attr unit b
vector 164 LinkDegradation.r2.eth[1].queue outgoingDataRate:vector ETV
attr interpolationmode linear
attr recordingmode vector
attr source throughput(packetPulled)
attr title "outgoing datarate"
attr unit bps
vector 165 LinkDegradation.r2.eth[1].queue droppedPacketLengthsQueueOverflow:vector ETV
attr interpolationmode none
attr recordingmode vector
attr source packetLength(packetDropReasonIsQueueOverflow(packetDropped))
attr title "dropped packet lengths: queue overflow"
attr unit b
vector 166 LinkDegradation.r2.eth[1].queue flowQueueingTime:vector ETV
attr interpolationmode none
attr recordingmode vector
attr source queueingTime(demuxFlow(packetPulled))
attr title "flow queueing times"
attr unit s
vector 167 LinkDegradation.r2.eth[1].queue flowIncomingDataRate:vector ETV
attr interpolationmode linear
attr recordingmode vector
attr source throughput(flowPacketLength(demuxFlow(packetPushStarted)))
attr title "flow specific incoming data rate"
attr unit bps
vector 168 LinkDegradation.r2.eth[1].queue flowOutgoingDataRate:vector ETV
attr interpolationmode linear
attr recordingmode vector
attr source throughput(flowPacketLength(demuxFlow(packetPulled)))
attr title "flow specific outgoing data rate"
attr unit bps
vector 169 LinkDegradation.r2.eth[1].mac txPk:vector(packetBytes) ETV
attr interpolationmode none
attr recordingmode vector(packetBytes)
attr source packetSentToLower
attr title "packets transmitted, packetBytes"
vector 170 LinkDegradation.r2.eth[1].mac rxPkOk:vector(packetBytes) ETV
attr interpolationmode none
attr recordingmode vector(packetBytes)
attr source rxPkOk
attr title "packets received OK, packetBytes"
vector 171 LinkDegradation.r2.eth[1].mac passedUpPk:vector(packetBytes) ETV
attr interpolationmode none
attr recordingmode vector(packetBytes)
attr source packetSentToUpper
attr title "packets passed to higher layer, packetBytes"
vector 172 LinkDegradation.r2.eth[1].mac txPausePkUnits:vector ETV
attr interpolationmode none
attr recordingmode vector
attr title "pause units sent"
vector 173 LinkDegradation.r2.eth[1].mac rxPausePkUnits:vector ETV
attr interpolationmode none
attr recordingmode vector
attr title "pause units received"
vector 174 LinkDegradation.r2.eth[1].mac packetReceivedFromUpper:vector(packetBytes) ETV
attr interpolationmode none
attr recordingmode vector(packetBytes)
attr source packetReceivedFromUpper
attr title "packet bytes from higher layer, packetBytes"
vector 175 LinkDegradation.r2.eth[1].mac packetDropIncorrectlyReceived:vector(packetBytes) ETV
attr interpolationmode none
attr recordingmode vector(packetBytes)
attr source packetDropReasonIsIncorrectlyReceived(packetDropped)
attr title "packet drop: incorrectly received, packetBytes"
vector 176 LinkDegradation.r2.eth[1].mac packetDropInterfaceDown:vector(packetBytes) ETV
attr interpolationmode none
attr recordingmode vector(packetBytes)
attr source packetDropReasonIsInterfaceDown(packetDropped)
attr title "packet drop: interface down, packetBytes"
vector 177 LinkDegradation.r2.eth[1].mac packetDropNotAddressedToUs:vector(packetBytes) ETV
attr interpolationmode none
attr recordingmode vector(packetBytes)
attr source packetDropReasonIsNotAddressedToUs(packetDropped)
attr title "packet drop: not addressed to us, packetBytes"
vector 178 LinkDegradation.r2.eth[1] packetDropInterfaceDown:vector(packetBytes) ETV
attr interpolationmode none
attr recordingmode vector(packetBytes)
attr source packetDropReasonIsInterfaceDown(packetDropped)
attr title "packet drops: interface down, packetBytes"
vector 179 LinkDegradation.r2.eth[1] packetDropNoCarrier:vector(packetBytes) ETV
attr interpolationmode none
attr recordingmode vector(packetBytes)
attr source packetDropReasonIsNoCarrier(packetDropped)
attr title "packet drops: no carrier, packetBytes"
vector 180 LinkDegradation.r2.ipv4.ip packetDropAddressResolutionFailed:vector(packetBytes) ETV
attr interpolationmode none
attr recordingmode vector(packetBytes)
attr source packetDropReasonIsAddressResolutionFailed(packetDropped)
attr title "packet drop: address resolution failed, packetBytes"
vector 181 LinkDegradation.r2.ipv4.ip packetDropHopLimitReached:vector(packetBytes) ETV
attr interpolationmode none
attr recordingmode vector(packetBytes)
attr source packetDropReasonIsHopLimitReached(packetDropped)
attr title "packet drop: hop limit reached, packetBytes"
vector 182 LinkDegradation.r2.ipv4.ip packetDropForwardingDisabled:vector(packetBytes) ETV
attr interpolationmode none
attr recordingmode vector(packetBytes)
attr source packetDropReasonIsForwardingDisabled(packetDropped)
attr title "packet drop: forwarding disabled, packetBytes"
vector 183 LinkDegradation.r2.ipv4.ip packetDropNoInterfaceFound:vector(packetBytes) ETV
attr interpolationmode none
attr recordingmode vector(packetBytes)
attr source packetDropReasonIsNoInterfaceFound(packetDropped)
attr title "packet drop: no interface found, packetBytes"
vector 184 LinkDegradation.r2.ipv4.ip packetDropUndefined:vector(packetBytes) ETV
attr interpolationmode none
attr recordingmode vector(packetBytes)
attr source packetDropReasonIsUndefined(packetDropped)
attr title "packet drop: undefined, packetBytes"
vector 185 LinkDegradation.r2.ipv4.arp arpRequestSent:vector(packetBytes) ETV
attr recordingmode vector(packetBytes)
attr source arpRequestSent
attr title "ARP request sent, packetBytes"
vector 186 LinkDegradation.r2.ipv4.arp arpReplySent:vector(packetBytes) ETV
attr recordingmode vector(packetBytes)
attr source arpReplySent
attr title "ARP replies sent, packetBytes"
vector 187 LinkDegradation.r4.ethernet encapPk:vector(packetBytes) ETV
attr interpolationmode none
attr recordingmode vector(packetBytes)
attr source encapPk
attr title "packets encapsulated, packetBytes"
vector 188 LinkDegradation.r4.ethernet decapPk:vector(packetBytes) ETV
attr interpolationmode none
attr recordingmode vector(packetBytes)
attr source decapPk
attr title "packets decapsulated, packetBytes"
vector 189 LinkDegradation.r4.ethernet pauseSent:vector ETV
attr recordingmode vector
attr title "pause sent"
vector 190 LinkDegradation.r4.lo[0].lo rcvdPkFromHl:vector(packetBytes) ETV
attr interpolationmode none
attr recordingmode vector(packetBytes)
attr source packetReceivedFromUpper
attr title "packets received from higher layer, packetBytes"
vector 191 LinkDegradation.r4.lo[0].lo passedUpPk:vector(packetBytes) ETV
attr interpolationmode none
attr recordingmode vector(packetBytes)
attr source packetSentToUpper
attr title "packets passed to higher layer, packetBytes"
vector 192 LinkDegradation.r4.lo[0] packetDropInterfaceDown:vector(packetBytes) ETV
attr interpolationmode none
attr recordingmode vector(packetBytes)
attr source packetDropReasonIsInterfaceDown(packetDropped)
attr title "packet drops: interface down, packetBytes"
vector 193 LinkDegradation.r4.lo[0] packetDropNoCarrier:vector(packetBytes) ETV
attr interpolationmode none
attr recordingmode vector(packetBytes)
attr source packetDropReasonIsNoCarrier(packetDropped)
attr title "packet drops: no carrier, packetBytes"
vector 194 LinkDegradation.r4.eth[0].queue queueLength:vector ETV
attr autoWarmupFilter false
attr interpolationmode sample-hold
attr recordingmode vector
attr source "warmup(atomic(constant0(packetPushEnded) + count(packetPushStarted) - count(packetPulled) - count(packetRemoved) - count(packetDropped)))"
attr title "queue length"
attr unit pk
vector 195 LinkDegradation.r4.eth[0].queue queueBitLength:vector ETV
attr autoWarmupFilter false
attr interpolationmode sample-hold
attr recordingmode vector
attr source "warmup(atomic(constant0(packetPushEnded) + sum(packetLength(packetPushStarted)) - sum(packetLength(packetPulled)) - sum(packetLength(packetRemoved)) - sum(packetLength(packetDropped))))"
attr title "queue bit length"
attr unit b
vector 196 LinkDegradation.r4.eth[0].queue queueingTime:vector ETV
attr interpolationmode none
attr recordingmode vector
attr source queueingTime(packetPulled)
attr title "queueing times"
attr unit s
vector 197 LinkDegradation.r4.eth[0].queue incomingPacketLengths:vector ETV
attr interpolationmode none
attr recordingmode vector
attr source packetLength(packetPushStarted)
attr title "incoming packet lengths"
attr unit b
vector 198 LinkDegradation.r4.eth[0].queue incomingDataRate:vector ETV
attr interpolationmode linear
attr recordingmode vector
attr source throughput(packetPushStarted)
attr title "incoming datarate"
attr unit bps
vector 199 LinkDegradation.r4.eth[0].queue outgoingPacketLengths:vector ETV
attr interpolationmode none
attr recordingmode vector
attr source packetLength(packetPulled)
attr title "outgoing packet lengths"
attr unit b
vector 200 LinkDegradation.r4.eth[0].queue outgoingDataRate:vector ETV
attr interpolationmode linear
attr recordingmode vector
attr source throughput(packetPulled)
attr title "outgoing datarate"
attr unit bps
vector 201 LinkDegradation.r4.eth[0].queue droppedPacketLengthsQueueOverflow:vector ETV
attr interpolationmode none
attr recordingmode vector
attr source packetLength(packetDropReasonIsQueueOverflow(packetDropped))
attr title "dropped packet lengths: queue overflow"
attr unit b
vector 202 LinkDegradation.r4.eth[0].queue flowQueueingTime:vector ETV
attr interpolationmode none
attr recordingmode vector
attr source queueingTime(demuxFlow(packetPulled))
attr title "flow queueing times"
attr unit s
vector 203 LinkDegradation.r4.eth[0].queue flowIncomingDataRate:vector ETV
attr interpolationmode linear
attr recordingmode vector
attr source throughput(flowPacketLength(demuxFlow(packetPushStarted)))
attr title "flow specific incoming data rate"
attr unit bps
vector 204 LinkDegradation.r4.eth[0].queue flowOutgoingDataRate:vector ETV
attr interpolationmode linear
attr recordingmode vector
attr source throughput(flowPacketLength(demuxFlow(packetPulled)))
attr title "flow specific outgoing data rate"
attr unit bps
vector 205 LinkDegradation.r4.eth[0].mac txPk:vector(packetBytes) ETV
attr interpolationmode none
attr recordingmode vector(packetBytes)
attr source packetSentToLower
attr title "packets transmitted, packetBytes"
vector 206 LinkDegradation.r4.eth[0].mac rxPkOk:vector(packetBytes) ETV
attr interpolationmode none
attr recordingmode vector(packetBytes)
attr source rxPkOk
attr title "packets received OK, packetBytes"
vector 207 LinkDegradation.r4.eth[0].mac passedUpPk:vector(packetBytes) ETV
attr interpolationmode none
attr recordingmode vector(packetBytes)
attr source packetSentToUpper
attr title "packets passed to higher layer, packetBytes"
vector 208 LinkDegradation.r4.eth[0].mac txPausePkUnits:vector ETV
attr interpolationmode none
attr recordingmode vector
attr title "pause units sent"
vector 209 LinkDegradation.r4.eth[0].mac rxPausePkUnits:vector ETV
attr interpolationmode none
attr recordingmode vector
attr title "pause units received"
vector 210 LinkDegradation.r4.eth[0].mac packetReceivedFromUpper:vector(packetBytes) ETV
attr interpolationmode none
attr recordingmode vector(packetBytes)
attr source packetReceivedFromUpper
attr title "packet bytes from higher layer, packetBytes"
vector 211 LinkDegradation.r4.eth[0].mac packetDropIncorrectlyReceived:vector(packetBytes) ETV
attr interpolationmode none
attr recordingmode vector(packetBytes)
attr source packetDropReasonIsIncorrectlyReceived(packetDropped)
attr title "packet drop: incorrectly received, packetBytes"
vector 212 LinkDegradation.r4.eth[0].mac packetDropInterfaceDown:vector(packetBytes) ETV
attr interpolationmode none
attr recordingmode vector(packetBytes)
attr source packetDropReasonIsInterfaceDown(packetDropped)
attr title "packet drop: interface down, packetBytes"
vector 213 LinkDegradation.r4.eth[0].mac packetDropNotAddressedToUs:vector(packetBytes) ETV
attr interpolationmode none
attr recordingmode vector(packetBytes)
attr source packetDropReasonIsNotAddressedToUs(packetDropped)
attr title "packet drop: not addressed to us, packetBytes"
vector 214 LinkDegradation.r4.eth[0] packetDropInterfaceDown:vector(packetBytes) ETV
attr interpolationmode none
attr recordingmode vector(packetBytes)
attr source packetDropReasonIsInterfaceDown(packetDropped)
attr title "packet drops: interface down, packetBytes"
vector 215 LinkDegradation.r4.eth[0] packetDropNoCarrier:vector(packetBytes) ETV
attr interpolationmode none
attr recordingmode vector(packetBytes)
attr source packetDropReasonIsNoCarrier(packetDropped)
attr title "packet drops: no carrier, packetBytes"
vector 216 LinkDegradation.r4.eth[1].queue queueLength:vector ETV
attr autoWarmupFilter false
attr interpolationmode sample-hold
attr recordingmode vector
attr source "warmup(atomic(constant0(packetPushEnded) + count(packetPushStarted) - count(packetPulled) - count(packetRemoved) - count(packetDropped)))"
attr title "queue length"
attr unit pk
vector 217 LinkDegradation.r4.eth[1].queue queueBitLength:vector ETV
attr autoWarmupFilter false
attr interpolationmode sample-hold
attr recordingmode vector
attr source "warmup(atomic(constant0(packetPushEnded) + sum(packetLength(packetPushStarted)) - sum(packetLength(packetPulled)) - sum(packetLength(packetRemoved)) - sum(packetLength(packetDropped))))"
attr title "queue bit length"
attr unit b
vector 218 LinkDegradation.r4.eth[1].queue queueingTime:vector ETV
attr interpolationmode none
attr recordingmode vector
attr source queueingTime(packetPulled)
attr title "queueing times"
attr unit s
vector 219 LinkDegradation.r4.eth[1].queue incomingPacketLengths:vector ETV
attr interpolationmode none
attr recordingmode vector
attr source packetLength(packetPushStarted)
attr title "incoming packet lengths"
attr unit b
vector 220 LinkDegradation.r4.eth[1].queue incomingDataRate:vector ETV
attr interpolationmode linear
attr recordingmode vector
attr source throughput(packetPushStarted)
attr title "incoming datarate"
attr unit bps
vector 221 LinkDegradation.r4.eth[1].queue outgoingPacketLengths:vector ETV
attr interpolationmode none
attr recordingmode vector
attr source packetLength(packetPulled)
attr title "outgoing packet lengths"
attr unit b
vector 222 LinkDegradation.r4.eth[1].queue outgoingDataRate:vector ETV
attr interpolationmode linear
attr recordingmode vector
attr source throughput(packetPulled)
attr title "outgoing datarate"
attr unit bps
vector 223 LinkDegradation.r4.eth[1].queue droppedPacketLengthsQueueOverflow:vector ETV
attr interpolationmode none
attr recordingmode vector
attr source packetLength(packetDropReasonIsQueueOverflow(packetDropped))
attr title "dropped packet lengths: queue overflow"
attr unit b
vector 224 LinkDegradation.r4.eth[1].queue flowQueueingTime:vector ETV
attr interpolationmode none
attr recordingmode vector
attr source queueingTime(demuxFlow(packetPulled))
attr title "flow queueing times"
attr unit s
vector 225 LinkDegradation.r4.eth[1].queue flowIncomingDataRate:vector ETV
attr interpolationmode linear
attr recordingmode vector
attr source throughput(flowPacketLength(demuxFlow(packetPushStarted)))
attr title "flow specific incoming data rate"
attr unit bps
vector 226 LinkDegradation.r4.eth[1].queue flowOutgoingDataRate:vector ETV
attr interpolationmode linear
attr recordingmode vector
attr source throughput(flowPacketLength(demuxFlow(packetPulled)))
attr title "flow specific outgoing data rate"
attr unit bps
vector 227 LinkDegradation.r4.eth[1].mac txPk:vector(packetBytes) ETV
attr interpolationmode none
attr recordingmode vector(packetBytes)
attr source packetSentToLower
attr title "packets transmitted, packetBytes"
vector 228 LinkDegradation.r4.eth[1].mac rxPkOk:vector(packetBytes) ETV
attr interpolationmode none
attr recordingmode vector(packetBytes)
attr source rxPkOk
attr title "packets received OK, packetBytes"
vector 229 LinkDegradation.r4.eth[1].mac passedUpPk:vector(packetBytes) ETV
attr interpolationmode none
attr recordingmode vector(packetBytes)
attr source packetSentToUpper
attr title "packets passed to higher layer, packetBytes"
vector 230 LinkDegradation.r4.eth[1].mac txPausePkUnits:vector ETV
attr interpolationmode none
attr recordingmode vector
attr title "pause units sent"
vector 231 LinkDegradation.r4.eth[1].mac rxPausePkUnits:vector ETV
attr interpolationmode none
attr recordingmode vector
attr title "pause units received"
vector 232 LinkDegradation.r4.eth[1].mac packetReceivedFromUpper:vector(packetBytes) ETV
attr interpolationmode none
attr recordingmode vector(packetBytes)
attr source packetReceivedFromUpper
attr title "packet bytes from higher layer, packetBytes"
vector 233 LinkDegradation.r4.eth[1].mac packetDropIncorrectlyReceived:vector(packetBytes) ETV
attr interpolationmode none
attr recordingmode vector(packetBytes)
attr source packetDropReasonIsIncorrectlyReceived(packetDropped)
attr title "packet drop: incorrectly received, packetBytes"
vector 234 LinkDegradation.r4.eth[1].mac packetDropInterfaceDown:vector(packetBytes) ETV
attr interpolationmode none
attr recordingmode vector(packetBytes)
attr source packetDropReasonIsInterfaceDown(packetDropped)
attr title "packet drop: interface down, packetBytes"
vector 235 LinkDegradation.r4.eth[1].mac packetDropNotAddressedToUs:vector(packetBytes) ETV
attr interpolationmode none
attr recordingmode vector(packetBytes)
attr source packetDropReasonIsNotAddressedToUs(packetDropped)
attr title "packet drop: not addressed to us, packetBytes"
vector 236 LinkDegradation.r4.eth[1] packetDropInterfaceDown:vector(packetBytes) ETV
attr interpolationmode none
attr recordingmode vector(packetBytes)
attr source packetDropReasonIsInterfaceDown(packetDropped)
attr title "packet drops: interface down, packetBytes"
vector 237 LinkDegradation.r4.eth[1] packetDropNoCarrier:vector(packetBytes) ETV
attr interpolationmode none
attr recordingmode vector(packetBytes)
attr source packetDropReasonIsNoCarrier(packetDropped)
attr title "packet drops: no carrier, packetBytes"
vector 238 LinkDegradation.r4.ipv4.ip packetDropAddressResolutionFailed:vector(packetBytes) ETV
attr interpolationmode none
attr recordingmode vector(packetBytes)
attr source packetDropReasonIsAddressResolutionFailed(packetDropped)
attr title "packet drop: address resolution failed, packetBytes"
vector 239 LinkDegradation.r4.ipv4.ip packetDropHopLimitReached:vector(packetBytes) ETV
attr interpolationmode none
attr recordingmode vector(packetBytes)
attr source packetDropReasonIsHopLimitReached(packetDropped)
attr title "packet drop: hop limit reached, packetBytes"
vector 240 LinkDegradation.r4.ipv4.ip packetDropForwardingDisabled:vector(packetBytes) ETV
attr interpolationmode none
attr recordingmode vector(packetBytes)
attr source packetDropReasonIsForwardingDisabled(packetDropped)
attr title "packet drop: forwarding disabled, packetBytes"
vector 241 LinkDegradation.r4.ipv4.ip packetDropNoInterfaceFound:vector(packetBytes) ETV
attr interpolationmode none
attr recordingmode vector(packetBytes)
attr source packetDropReasonIsNoInterfaceFound(packetDropped)
attr title "packet drop: no interface found, packetBytes"
vector 242 LinkDegradation.r4.ipv4.ip packetDropUndefined:vector(packetBytes) ETV
attr interpolationmode none
attr recordingmode vector(packetBytes)
attr source packetDropReasonIsUndefined(packetDropped)
attr title "packet drop: undefined, packetBytes"
vector 243 LinkDegradation.r4.ipv4.arp arpRequestSent:vector(packetBytes) ETV
attr recordingmode vector(packetBytes)
attr source arpRequestSent
attr title "ARP request sent, packetBytes"
vector 244 LinkDegradation.r4.ipv4.arp arpReplySent:vector(packetBytes) ETV
attr recordingmode vector(packetBytes)
attr source arpReplySent
attr title "ARP replies sent, packetBytes"
vector 245 LinkDegradation.r3.ethernet encapPk:vector(packetBytes) ETV
attr interpolationmode none
attr recordingmode vector(packetBytes)
attr source encapPk
attr title "packets encapsulated, packetBytes"
vector 246 LinkDegradation.r3.ethernet decapPk:vector(packetBytes) ETV
attr interpolationmode none
attr recordingmode vector(packetBytes)
attr source decapPk
attr title "packets decapsulated, packetBytes"
vector 247 LinkDegradation.r3.ethernet pauseSent:vector ETV
attr recordingmode vector
attr title "pause sent"
vector 248 LinkDegradation.r3.lo[0].lo rcvdPkFromHl:vector(packetBytes) ETV
attr interpolationmode none
attr recordingmode vector(packetBytes)
attr source packetReceivedFromUpper
attr title "packets received from higher layer, packetBytes"
vector 249 LinkDegradation.r3.lo[0].lo passedUpPk:vector(packetBytes) ETV
attr interpolationmode none
attr recordingmode vector(packetBytes)
attr source packetSentToUpper
attr title "packets passed to higher layer, packetBytes"
vector 250 LinkDegradation.r3.lo[0] packetDropInterfaceDown:vector(packetBytes) ETV
attr interpolationmode none
attr recordingmode vector(packetBytes)
attr source packetDropReasonIsInterfaceDown(packetDropped)
attr title "packet drops: interface down, packetBytes"
vector 251 LinkDegradation.r3.lo[0] packetDropNoCarrier:vector(packetBytes) ETV
attr interpolationmode none
attr recordingmode vector(packetBytes)
attr source packetDropReasonIsNoCarrier(packetDropped)
attr title "packet drops: no carrier, packetBytes"
vector 252 LinkDegradation.r3.eth[0].queue queueLength:vector ETV
attr autoWarmupFilter false
attr interpolationmode sample-hold
attr recordingmode vector
attr source "warmup(atomic(constant0(packetPushEnded) + count(packetPushStarted) - count(packetPulled) - count(packetRemoved) - count(packetDropped)))"
attr title "queue length"
attr unit pk
vector 253 LinkDegradation.r3.eth[0].queue queueBitLength:vector ETV
attr autoWarmupFilter false
attr interpolationmode sample-hold
attr recordingmode vector
attr source "warmup(atomic(constant0(packetPushEnded) + sum(packetLength(packetPushStarted)) - sum(packetLength(packetPulled)) - sum(packetLength(packetRemoved)) - sum(packetLength(packetDropped))))"
attr title "queue bit length"
attr unit b
vector 254 LinkDegradation.r3.eth[0].queue queueingTime:vector ETV
attr interpolationmode none
attr recordingmode vector
attr source queueingTime(packetPulled)
attr title "queueing times"
attr unit s
vector 255 LinkDegradation.r3.eth[0].queue incomingPacketLengths:vector ETV
attr interpolationmode none
attr recordingmode vector
attr source packetLength(packetPushStarted)
attr title "incoming packet lengths"
attr unit b
vector 256 LinkDegradation.r3.eth[0].queue incomingDataRate:vector ETV
attr interpolationmode linear
attr recordingmode vector
attr source throughput(packetPushStarted)
attr title "incoming datarate"
attr unit bps
vector 257 LinkDegradation.r3.eth[0].queue outgoingPacketLengths:vector ETV
attr interpolationmode none
attr recordingmode vector
attr source packetLength(packetPulled)
attr title "outgoing packet lengths"
attr unit b
vector 258 LinkDegradation.r3.eth[0].queue outgoingDataRate:vector ETV
attr interpolationmode linear
attr recordingmode vector
attr source throughput(packetPulled)
attr title "outgoing datarate"
attr unit bps
vector 259 LinkDegradation.r3.eth[0].queue droppedPacketLengthsQueueOverflow:vector ETV
attr interpolationmode none
attr recordingmode vector
attr source packetLength(packetDropReasonIsQueueOverflow(packetDropped))
attr title "dropped packet lengths: queue overflow"
attr unit b
vector 260 LinkDegradation.r3.eth[0].queue flowQueueingTime:vector ETV
attr interpolationmode none
attr recordingmode vector
attr source queueingTime(demuxFlow(packetPulled))
attr title "flow queueing times"
attr unit s
vector 261 LinkDegradation.r3.eth[0].queue flowIncomingDataRate:vector ETV
attr interpolationmode linear
attr recordingmode vector
attr source throughput(flowPacketLength(demuxFlow(packetPushStarted)))
attr title "flow specific incoming data rate"
attr unit bps
vector 262 LinkDegradation.r3.eth[0].queue flowOutgoingDataRate:vector ETV
attr interpolationmode linear
attr recordingmode vector
attr source throughput(flowPacketLength(demuxFlow(packetPulled)))
attr title "flow specific outgoing data rate"
attr unit bps
vector 263 LinkDegradation.r3.eth[0].mac txPk:vector(packetBytes) ETV
attr interpolationmode none
attr recordingmode vector(packetBytes)
attr source packetSentToLower
attr title "packets transmitted, packetBytes"
vector 264 LinkDegradation.r3.eth[0].mac rxPkOk:vector(packetBytes) ETV
attr interpolationmode none
attr recordingmode vector(packetBytes)
attr source rxPkOk
attr title "packets received OK, packetBytes"
vector 265 LinkDegradation.r3.eth[0].mac passedUpPk:vector(packetBytes) ETV
attr interpolationmode none
attr recordingmode vector(packetBytes)
attr source packetSentToUpper
attr title "packets passed to higher layer, packetBytes"
vector 266 LinkDegradation.r3.eth[0].mac txPausePkUnits:vector ETV
attr interpolationmode none
attr recordingmode vector
attr title "pause units sent"
vector 267 LinkDegradation.r3.eth[0].mac rxPausePkUnits:vector ETV
attr interpolationmode none
attr recordingmode vector
attr title "pause units received"
vector 268 LinkDegradation.r3.eth[0].mac packetReceivedFromUpper:vector(packetBytes) ETV
attr interpolationmode none
attr recordingmode vector(packetBytes)
attr source packetReceivedFromUpper
attr title "packet bytes from higher layer, packetBytes"
vector 269 LinkDegradation.r3.eth[0].mac packetDropIncorrectlyReceived:vector(packetBytes) ETV
attr interpolationmode none
attr recordingmode vector(packetBytes)
attr source packetDropReasonIsIncorrectlyReceived(packetDropped)
attr title "packet drop: incorrectly received, packetBytes"
vector 270 LinkDegradation.r3.eth[0].mac packetDropInterfaceDown:vector(packetBytes) ETV
attr interpolationmode none
attr recordingmode vector(packetBytes)
attr source packetDropReasonIsInterfaceDown(packetDropped)
attr title "packet drop: interface down, packetBytes"
vector 271 LinkDegradation.r3.eth[0].mac packetDropNotAddressedToUs:vector(packetBytes) ETV
attr interpolationmode none
attr recordingmode vector(packetBytes)
attr source packetDropReasonIsNotAddressedToUs(packetDropped)
attr title "packet drop: not addressed to us, packetBytes"
vector 272 LinkDegradation.r3.eth[0] packetDropInterfaceDown:vector(packetBytes) ETV
attr interpolationmode none
attr recordingmode vector(packetBytes)
attr source packetDropReasonIsInterfaceDown(packetDropped)
attr title "packet drops: interface down, packetBytes"
vector 273 LinkDegradation.r3.eth[0] packetDropNoCarrier:vector(packetBytes) ETV
attr interpolationmode none
attr recordingmode vector(packetBytes)
attr source packetDropReasonIsNoCarrier(packetDropped)
attr title "packet drops: no carrier, packetBytes"
vector 274 LinkDegradation.r3.eth[1].queue queueLength:vector ETV
attr autoWarmupFilter false
attr interpolationmode sample-hold
attr recordingmode vector
attr source "warmup(atomic(constant0(packetPushEnded) + count(packetPushStarted) - count(packetPulled) - count(packetRemoved) - count(packetDropped)))"
attr title "queue length"
attr unit pk
vector 275 LinkDegradation.r3.eth[1].queue queueBitLength:vector ETV
attr autoWarmupFilter false
attr interpolationmode sample-hold
attr recordingmode vector
attr source "warmup(atomic(constant0(packetPushEnded) + sum(packetLength(packetPushStarted)) - sum(packetLength(packetPulled)) - sum(packetLength(packetRemoved)) - sum(packetLength(packetDropped))))"
attr title "queue bit length"
attr unit b
vector 276 LinkDegradation.r3.eth[1].queue queueingTime:vector ETV
attr interpolationmode none
attr recordingmode vector
attr source queueingTime(packetPulled)
attr title "queueing times"
attr unit s
vector 277 LinkDegradation.r3.eth[1].queue incomingPacketLengths:vector ETV
attr interpolationmode none
attr recordingmode vector
attr source packetLength(packetPushStarted)
attr title "incoming packet lengths"
attr unit b
vector 278 LinkDegradation.r3.eth[1].queue incomingDataRate:vector ETV
attr interpolationmode linear
attr recordingmode vector
attr source throughput(packetPushStarted)
attr title "incoming datarate"
attr unit bps
vector 279 LinkDegradation.r3.eth[1].queue outgoingPacketLengths:vector ETV
attr interpolationmode none
attr recordingmode vector
attr source packetLength(packetPulled)
attr title "outgoing packet lengths"
attr unit b
vector 280 LinkDegradation.r3.eth[1].queue outgoingDataRate:vector ETV
attr interpolationmode linear
attr recordingmode vector
attr source throughput(packetPulled)
attr title "outgoing datarate"
attr unit bps
vector 281 LinkDegradation.r3.eth[1].queue droppedPacketLengthsQueueOverflow:vector ETV
attr interpolationmode none
attr recordingmode vector
attr source packetLength(packetDropReasonIsQueueOverflow(packetDropped))
attr title "dropped packet lengths: queue overflow"
attr unit b
vector 282 LinkDegradation.r3.eth[1].queue flowQueueingTime:vector ETV
attr interpolationmode none
attr recordingmode vector
attr source queueingTime(demuxFlow(packetPulled))
attr title "flow queueing times"
attr unit s
vector 283 LinkDegradation.r3.eth[1].queue flowIncomingDataRate:vector ETV
attr interpolationmode linear
attr recordingmode vector
attr source throughput(flowPacketLength(demuxFlow(packetPushStarted)))
attr title "flow specific incoming data rate"
attr unit bps
vector 284 LinkDegradation.r3.eth[1].queue flowOutgoingDataRate:vector ETV
attr interpolationmode linear
attr recordingmode vector
attr source throughput(flowPacketLength(demuxFlow(packetPulled)))
attr title "flow specific outgoing data rate"
attr unit bps
vector 285 LinkDegradation.r3.eth[1].mac txPk:vector(packetBytes) ETV
attr interpolationmode none
attr recordingmode vector(packetBytes)
attr source packetSentToLower
attr title "packets transmitted, packetBytes"
vector 286 LinkDegradation.r3.eth[1].mac rxPkOk:vector(packetBytes) ETV
attr interpolationmode none
attr recordingmode vector(packetBytes)
attr source rxPkOk
attr title "packets received OK, packetBytes"
vector 287 LinkDegradation.r3.eth[1].mac passedUpPk:vector(packetBytes) ETV
attr interpolationmode none
attr recordingmode vector(packetBytes)
attr source packetSentToUpper
attr title "packets passed to higher layer, packetBytes"
vector 288 LinkDegradation.r3.eth[1].mac txPausePkUnits:vector ETV
attr interpolationmode none
attr recordingmode vector
attr title "pause units sent"
vector 289 LinkDegradation.r3.eth[1].mac rxPausePkUnits:vector ETV
attr interpolationmode none
attr recordingmode vector
attr title "pause units received"
vector 290 LinkDegradation.r3.eth[1].mac packetReceivedFromUpper:vector(packetBytes) ETV
attr interpolationmode none
attr recordingmode vector(packetBytes)
attr source packetReceivedFromUpper
attr title "packet bytes from higher layer, packetBytes"
vector 291 LinkDegradation.r3.eth[1].mac packetDropIncorrectlyReceived:vector(packetBytes) ETV
attr interpolationmode none
attr recordingmode vector(packetBytes)
attr source packetDropReasonIsIncorrectlyReceived(packetDropped)
attr title "packet drop: incorrectly received, packetBytes"
vector 292 LinkDegradation.r3.eth[1].mac packetDropInterfaceDown:vector(packetBytes) ETV
attr interpolationmode none
attr recordingmode vector(packetBytes)
attr source packetDropReasonIsInterfaceDown(packetDropped)
attr title "packet drop: interface down, packetBytes"
vector 293 LinkDegradation.r3.eth[1].mac packetDropNotAddressedToUs:vector(packetBytes) ETV
attr interpolationmode none
attr recordingmode vector(packetBytes)
attr source packetDropReasonIsNotAddressedToUs(packetDropped)
attr title "packet drop: not addressed to us, packetBytes"
vector 294 LinkDegradation.r3.eth[1] packetDropInterfaceDown:vector(packetBytes) ETV
attr interpolationmode none
attr recordingmode vector(packetBytes)
attr source packetDropReasonIsInterfaceDown(packetDropped)
attr title "packet drops: interface down, packetBytes"
vector 295 LinkDegradation.r3.eth[1] packetDropNoCarrier:vector(packetBytes) ETV
attr interpolationmode none
attr recordingmode vector(packetBytes)
attr source packetDropReasonIsNoCarrier(packetDropped)
attr title "packet drops: no carrier, packetBytes"
vector 296 LinkDegradation.r3.eth[2].queue queueLength:vector ETV
attr autoWarmupFilter false
attr interpolationmode sample-hold
attr recordingmode vector
attr source "warmup(atomic(constant0(packetPushEnded) + count(packetPushStarted) - count(packetPulled) - count(packetRemoved) - count(packetDropped)))"
attr title "queue length"
attr unit pk
vector 297 LinkDegradation.r3.eth[2].queue queueBitLength:vector ETV
attr autoWarmupFilter false
attr interpolationmode sample-hold
attr recordingmode vector
attr source "warmup(atomic(constant0(packetPushEnded) + sum(packetLength(packetPushStarted)) - sum(packetLength(packetPulled)) - sum(packetLength(packetRemoved)) - sum(packetLength(packetDropped))))"
attr title "queue bit length"
attr unit b
vector 298 LinkDegradation.r3.eth[2].queue queueingTime:vector ETV
attr interpolationmode none
attr recordingmode vector
attr source queueingTime(packetPulled)
attr title "queueing times"
attr unit s
vector 299 LinkDegradation.r3.eth[2].queue incomingPacketLengths:vector ETV
attr interpolationmode none
attr recordingmode vector
attr source packetLength(packetPushStarted)
attr title "incoming packet lengths"
attr unit b
vector 300 LinkDegradation.r3.eth[2].queue incomingDataRate:vector ETV
attr interpolationmode linear
attr recordingmode vector
attr source throughput(packetPushStarted)
attr title "incoming datarate"
attr unit bps
vector 301 LinkDegradation.r3.eth[2].queue outgoingPacketLengths:vector ETV
attr interpolationmode none
attr recordingmode vector
attr source packetLength(packetPulled)
attr title "outgoing packet lengths"
attr unit b
vector 302 LinkDegradation.r3.eth[2].queue outgoingDataRate:vector ETV
attr interpolationmode linear
attr recordingmode vector
attr source throughput(packetPulled)
attr title "outgoing datarate"
attr unit bps
vector 303 LinkDegradation.r3.eth[2].queue droppedPacketLengthsQueueOverflow:vector ETV
attr interpolationmode none
attr recordingmode vector
attr source packetLength(packetDropReasonIsQueueOverflow(packetDropped))
attr title "dropped packet lengths: queue overflow"
attr unit b
vector 304 LinkDegradation.r3.eth[2].queue flowQueueingTime:vector ETV
attr interpolationmode none
attr recordingmode vector
attr source queueingTime(demuxFlow(packetPulled))
attr title "flow queueing times"
attr unit s
vector 305 LinkDegradation.r3.eth[2].queue flowIncomingDataRate:vector ETV
attr interpolationmode linear
attr recordingmode vector
attr source throughput(flowPacketLength(demuxFlow(packetPushStarted)))
attr title "flow specific incoming data rate"
attr unit bps
vector 306 LinkDegradation.r3.eth[2].queue flowOutgoingDataRate:vector ETV
attr interpolationmode linear
attr recordingmode vector
attr source throughput(flowPacketLength(demuxFlow(packetPulled)))
attr title "flow specific outgoing data rate"
attr unit bps
vector 307 LinkDegradation.r3.eth[2].mac txPk:vector(packetBytes) ETV
attr interpolationmode none
attr recordingmode vector(packetBytes)
attr source packetSentToLower
attr title "packets transmitted, packetBytes"
vector 308 LinkDegradation.r3.eth[2].mac rxPkOk:vector(packetBytes) ETV
attr interpolationmode none
attr recordingmode vector(packetBytes)
attr source rxPkOk
attr title "packets received OK, packetBytes"
vector 309 LinkDegradation.r3.eth[2].mac passedUpPk:vector(packetBytes) ETV
attr interpolationmode none
attr recordingmode vector(packetBytes)
attr source packetSentToUpper
attr title "packets passed to higher layer, packetBytes"
vector 310 LinkDegradation.r3.eth[2].mac txPausePkUnits:vector ETV
attr interpolationmode none
attr recordingmode vector
attr title "pause units sent"
vector 311 LinkDegradation.r3.eth[2].mac rxPausePkUnits:vector ETV
attr interpolationmode none
attr recordingmode vector
attr title "pause units received"
vector 312 LinkDegradation.r3.eth[2].mac packetReceivedFromUpper:vector(packetBytes) ETV
attr interpolationmode none
attr recordingmode vector(packetBytes)
attr source packetReceivedFromUpper
attr title "packet bytes from higher layer, packetBytes"
[...]
369	7045	40.520696120583	0
369	7078	40.620696120583	10240
369	7078	40.720696120583	0
369	7203	40.820696120583	10240
369	7203	40.920696120583	0
369	7203	41.020696120583	0
369	7236	41.120696120583	10240
369	7236	41.220696120583	0
369	7269	41.320696120583	10240
369	7269	41.420696120583	0
369	7269	41.520696120583	0
369	7302	41.620696120583	10240
369	7302	41.720696120583	0
369	7382	41.820696120583	10240
369	7382	41.920696120583	0
369	7382	42.020696120583	0
369	7415	42.120696120583	10240
369	7415	42.220696120583	0
369	7448	42.320696120583	10240
369	7448	42.420696120583	0
369	7448	42.520696120583	0
369	7550	42.620696120583	10240
369	7550	42.720696120583	0
369	7550	42.820696120583	0
369	7550	42.920696120583	0
369	7550	43.020696120583	0
369	7583	43.120696120583	10240
369	7583	43.220696120583	0
369	7616	43.320696120583	10240
369	7616	43.420696120583	0
369	7616	43.520696120583	0
369	7649	43.620696120583	10240
369	7649	43.720696120583	0
369	7751	43.820696120583	10240
369	7751	43.920696120583	0
369	7751	44.020696120583	0
369	7751	44.120696120583	0
369	7751	44.220696120583	0
369	7784	44.320696120583	10240
369	7784	44.420696120583	0
369	7784	44.520696120583	0
369	7817	44.620696120583	10240
369	7817	44.720696120583	0
369	7969	44.820696120583	10240
369	7969	44.920696120583	0
369	8002	45.020696120583	10240
369	8002	45.120696120583	0
369	8002	45.220696120583	0
369	8035	45.320696120583	10240
369	8035	45.420696120583	0
369	8068	45.520696120583	10240
369	8068	45.620696120583	0
369	8068	45.720696120583	0
369	8200	45.820696120583	10240
369	8200	45.920696120583	0
369	8233	46.020696120583	10240
369	8233	46.120696120583	0
369	8233	46.220696120583	0
369	8266	46.320696120583	10240
369	8266	46.420696120583	0
369	8299	46.520696120583	10240
369	8299	46.620696120583	0
369	8299	46.720696120583	0
369	8377	46.820696120583	10240
369	8377	46.920696120583	0
369	8410	47.020696120583	10240
369	8410	47.120696120583	0
369	8410	47.220696120583	0
369	8443	47.320696120583	10240
369	8443	47.420696120583	0
369	8476	47.520696120583	10240
369	8476	47.620696120583	0
369	8476	47.720696120583	0
369	8554	47.820696120583	10240
369	8554	47.920696120583	0
369	8587	48.020696120583	10240
369	8587	48.120696120583	0
369	8587	48.220696120583	0
369	8620	48.320696120583	10240
369	8620	48.420696120583	0
369	8653	48.520696120583	10240
369	8653	48.620696120583	0
369	8653	48.720696120583	0
369	8731	48.820696120583	10240
369	8731	48.920696120583	0
369	8764	49.020696120583	10240
369	8764	49.120696120583	0
369	8764	49.220696120583	0
369	8797	49.320696120583	10240
369	8797	49.420696120583	0
369	8830	49.520696120583	10240
369	8830	49.620696120583	0
369	8830	49.720696120583	0
369	8964	49.820696120583	10240
369	8964	49.920696120583	0
369	9075	50.020696120583	10240
369	9075	50.120696120583	0
369	9075	50.220696120583	0
369	9108	50.320696120583	10240
369	9108	50.420696120583	0
369	9141	50.520696120583	10240
369	9141	50.620696120583	0
369	9141	50.720696120583	0
369	9273	50.820696120583	10240
369	9273	50.920696120583	0
369	9306	51.020696120583	10240
369	9306	51.120696120583	0
369	9306	51.220696120583	0
369	9339	51.320696120583	10240
369	9339	51.420696120583	0
369	9372	51.520696120583	10240
369	9372	51.620696120583	0
369	9372	51.720696120583	0
369	9450	51.820696120583	10240
369	9450	51.920696120583	0
369	9483	52.020696120583	10240
369	9483	52.120696120583	0
369	9483	52.220696120583	0
369	9516	52.320696120583	10240
369	9516	52.420696120583	0
369	9549	52.520696120583	10240
369	9549	52.620696120583	0
369	9549	52.720696120583	0
369	9627	52.820696120583	10240
369	9627	52.920696120583	0
369	9660	53.020696120583	10240
369	9660	53.120696120583	0
369	9660	53.220696120583	0
369	9693	53.320696120583	10240
369	9693	53.420696120583	0
369	9726	53.520696120583	10240
369	9726	53.620696120583	0
369	9726	53.720696120583	0
369	9804	53.820696120583	10240
369	9804	53.920696120583	0
369	9837	54.020696120583	10240
369	9837	54.120696120583	0
369	9837	54.220696120583	0
369	9870	54.320696120583	10240
369	9870	54.420696120583	0
369	9903	54.520696120583	10240
369	9903	54.620696120583	0
369	9903	54.720696120583	0
369	9981	54.820696120583	10240
369	9981	54.920696120583	0
369	10014	55.020696120583	10240
369	10014	55.120696120583	0
369	10014	55.220696120583	0
369	10047	55.320696120583	10240
369	10047	55.420696120583	0
369	10080	55.520696120583	10240
369	10080	55.620696120583	0
369	10080	55.720696120583	0
369	10158	55.820696120583	10240
369	10158	55.920696120583	0
369	10191	56.020696120583	10240
369	10191	56.120696120583	0
369	10191	56.220696120583	0
369	10224	56.320696120583	10240
369	10224	56.420696120583	0
369	10257	56.520696120583	10240
369	10257	56.620696120583	0
369	10257	56.720696120583	0
369	10335	56.820696120583	10240
369	10335	56.920696120583	0
369	10368	57.020696120583	10240
369	10368	57.120696120583	0
369	10368	57.220696120583	0
369	10401	57.320696120583	10240
369	10401	57.420696120583	0
369	10434	57.520696120583	10240
369	10434	57.620696120583	0
369	10434	57.720696120583	0
369	10512	57.820696120583	10240
369	10512	57.920696120583	0
369	10545	58.020696120583	10240
369	10545	58.120696120583	0
369	10545	58.220696120583	0
369	10578	58.320696120583	10240
369	10578	58.420696120583	0
369	10611	58.520696120583	10240
369	10611	58.620696120583	0
369	10611	58.720696120583	0
369	10689	58.820696120583	10240
369	10689	58.920696120583	0
369	10722	59.020696120583	10240
369	10722	59.120696120583	0
369	10722	59.220696120583	0
369	10755	59.320696120583	10240
369	10755	59.420696120583	0
369	10788	59.520696120583	10240
369	10788	59.620696120583	0
369	10788	59.720696120583	0
369	10812	59.820696120583	10240
369	10812	59.920696120583	0
369	10812	60	0
370	1453	12.00005864	5.864e-05
370	1514	12.25005864	5.864e-05
370	1547	12.50005864	5.864e-05
370	1580	12.75005864	5.864e-05
370	1660	13.00019704	0.00019704
370	1693	13.25005864	5.864e-05
370	1726	13.50005864	5.864e-05
370	1759	13.75005864	5.864e-05
370	1839	14.00019704	0.00019704
370	1872	14.25005864	5.864e-05
370	1905	14.50005864	5.864e-05
370	1938	14.75005864	5.864e-05
370	2018	15.00019704	0.00019704
370	2061	15.25005864	5.864e-05
370	2094	15.50005864	5.864e-05
370	2127	15.75005864	5.864e-05
370	2207	16.00019704	0.00019704
370	2240	16.25005864	5.864e-05
370	2273	16.50005864	5.864e-05
370	2306	16.75005864	5.864e-05
370	2386	17.00019704	0.00019704
370	2419	17.25005864	5.864e-05
370	2452	17.50005864	5.864e-05
370	2485	17.75005864	5.864e-05
370	2565	18.00019704	0.00019704
370	2598	18.25005864	5.864e-05
370	2631	18.50005864	5.864e-05
370	2664	18.75005864	5.864e-05
370	2744	19.00019704	0.00019704
370	2777	19.25005864	5.864e-05
370	2810	19.50005864	5.864e-05
370	2843	19.75005864	5.864e-05
370	2924	20.00019704	0.00019704
370	3065	20.25005864	5.864e-05
370	3099	20.500706336934	0.000706336934
370	3132	20.750706336934	0.000706336934
370	3213	21.001527936376	0.001527936376
370	3246	21.251389536376	0.001389536376
370	3280	21.502081785158	0.002081785158
370	3313	21.752081785158	0.002081785158
370	3394	22.002887240542	0.002887240542
370	3427	22.252748840542	0.002748840542
370	3461	22.503360403488	0.003360403488
370	3494	22.753360403488	0.003360403488
370	3575	23.004039729727	0.004039729727
370	3608	23.253901329727	0.003901329727
370	3642	23.504378870656	0.004378870656
370	3675	23.754378870656	0.004378870656
370	3756	24.00496190684	0.00496190684
370	3789	24.25482350684	0.00482350684
370	3823	24.505282666168	0.005282666168
370	3856	24.755282666168	0.005282666168
370	3937	25.005947017	0.005947017
370	3980	25.255808617	0.005808617
370	4014	25.506443560872	0.006443560872
370	4047	25.756443560872	0.006443560872
370	4128	26.007344340259	0.007344340259
370	4161	26.257205940259	0.007205940259
370	4195	26.508081925504	0.008081925504
370	4228	26.758081925504	0.008081925504
370	4331	27.259024916031	0.009024916031
370	4365	27.509963930465	0.009963930465
370	4398	27.759963930465	0.009963930465
370	4479	28.01095784217	0.01095784217
370	4512	28.26081944217	0.01081944217
370	4546	28.511523129231	0.011523129231
370	4649	29.012175107382	0.012175107382
370	4682	29.262036707382	0.012036707382
370	4716	29.51236488175	0.01236488175
370	4749	29.76236488175	0.01236488175
370	4830	30.01269699	0.01269699
370	4971	30.26255859	0.01255859
370	5005	30.512706899382	0.012706899382
370	5038	30.762706899382	0.012706899382
370	5119	31.013057069866	0.013057069866
370	5152	31.262918669866	0.012918669866
370	5186	31.513297745452	0.013297745452
370	5219	31.763297745452	0.013297745452
370	5300	32.014055716746	0.014055716746
370	5333	32.263917316746	0.013917316746
370	5367	32.514799697559	0.014799697559
370	5400	32.764799697559	0.014799697559
370	5481	33.016045254514	0.016045254514
370	5537	33.517144758183	0.017144758183
370	5570	33.767144758183	0.017144758183
370	5651	34.018519866062	0.018519866062
370	5684	34.268381466062	0.018381466062
370	5718	34.519475521792	0.019475521792
370	5751	34.769475521792	0.019475521792
370	5832	35.020446959	0.020446959
370	5875	35.270308559	0.020308559
370	5909	35.520814617088	0.020814617088
370	5942	35.770814617088	0.020814617088
370	6023	36.021137412642	0.021137412642
370	6056	36.270999012642	0.020999012642
370	6090	36.520941673335	0.020941673335
370	6123	36.770941673335	0.020941673335
370	6204	37.020921628211	0.020921628211
370	6237	37.270783228211	0.020783228211
370	6271	37.520696120583	0.020696120583
370	6304	37.770696120583	0.020696120583
370	6385	38.020985055118	0.020985055118
370	6418	38.270846655118	0.020846655118
370	6452	38.521356331379	0.021356331379
370	6485	38.771356331379	0.021356331379
370	6566	39.022409818859	0.022409818859
370	6599	39.272271418859	0.022271418859
370	6633	39.523548264567	0.023548264567
370	6666	39.773548264567	0.023548264567
370	6854	40.02519694	0.02519694
370	7012	40.27505854	0.02505854
370	7045	40.52505854	0.02505854
370	7078	40.77505854	0.02505854
370	7203	41.02519694	0.02519694
370	7236	41.27505854	0.02505854
370	7269	41.52505854	0.02505854
370	7302	41.77505854	0.02505854
370	7382	42.02519694	0.02519694
370	7415	42.27505854	0.02505854
370	7448	42.52505854	0.02505854
370	7550	43.02519694	0.02519694
370	7583	43.27505854	0.02505854
370	7616	43.52505854	0.02505854
370	7649	43.77505854	0.02505854
370	7751	44.27505854	0.02505854
370	7784	44.52505854	0.02505854
370	7817	44.77505854	0.02505854
370	7969	45.00019704	0.00019704
370	8002	45.25005864	5.864e-05
370	8035	45.50005864	5.864e-05
370	8068	45.75005864	5.864e-05
370	8200	46.00019704	0.00019704
370	8233	46.25005864	5.864e-05
370	8266	46.50005864	5.864e-05
370	8299	46.75005864	5.864e-05
370	8377	47.00019704	0.00019704
370	8410	47.25005864	5.864e-05
370	8443	47.50005864	5.864e-05
370	8476	47.75005864	5.864e-05
370	8554	48.00019704	0.00019704
370	8587	48.25005864	5.864e-05
370	8620	48.50005864	5.864e-05
370	8653	48.75005864	5.864e-05
370	8731	49.00019704	0.00019704
370	8764	49.25005864	5.864e-05
370	8797	49.50005864	5.864e-05
370	8830	49.75005864	5.864e-05
370	8964	50.00019704	0.00019704
370	9075	50.25005864	5.864e-05
370	9108	50.50005864	5.864e-05
370	9141	50.75005864	5.864e-05
370	9273	51.00019704	0.00019704
370	9306	51.25005864	5.864e-05
370	9339	51.50005864	5.864e-05
370	9372	51.75005864	5.864e-05
370	9450	52.00019704	0.00019704
370	9483	52.25005864	5.864e-05
370	9516	52.50005864	5.864e-05
370	9549	52.75005864	5.864e-05
370	9627	53.00019704	0.00019704
370	9660	53.25005864	5.864e-05
370	9693	53.50005864	5.864e-05
370	9726	53.75005864	5.864e-05
370	9804	54.00019704	0.00019704
370	9837	54.25005864	5.864e-05
370	9870	54.50005864	5.864e-05
370	9903	54.75005864	5.864e-05
370	9981	55.00019704	0.00019704
370	10014	55.25005864	5.864e-05
370	10047	55.50005864	5.864e-05
370	10080	55.75005864	5.864e-05
370	10158	56.00019704	0.00019704
370	10191	56.25005864	5.864e-05
370	10224	56.50005864	5.864e-05
370	10257	56.75005864	5.864e-05
370	10335	57.00019704	0.00019704
370	10368	57.25005864	5.864e-05
370	10401	57.50005864	5.864e-05
370	10434	57.75005864	5.864e-05
370	10512	58.00019704	0.00019704
370	10545	58.25005864	5.864e-05
370	10578	58.50005864	5.864e-05
370	10611	58.75005864	5.864e-05
370	10689	59.00019704	0.00019704
370	10722	59.25005864	5.864e-05
370	10755	59.50005864	5.864e-05
370	10788	59.75005864	5.864e-05
371	1453	12.00005864	0
371	1514	12.25005864	1
371	1547	12.50005864	2
371	1580	12.75005864	3
371	1660	13.00019704	4
371	1693	13.25005864	5
371	1726	13.50005864	6
371	1759	13.75005864	7
371	1839	14.00019704	8
371	1872	14.25005864	9
371	1905	14.50005864	10
371	1938	14.75005864	11
371	2018	15.00019704	12
371	2061	15.25005864	13
371	2094	15.50005864	14
371	2127	15.75005864	15
371	2207	16.00019704	16
371	2240	16.25005864	17
371	2273	16.50005864	18
371	2306	16.75005864	19
371	2386	17.00019704	20
371	2419	17.25005864	21
371	2452	17.50005864	22
371	2485	17.75005864	23
371	2565	18.00019704	24
371	2598	18.25005864	25
371	2631	18.50005864	26
371	2664	18.75005864	27
371	2744	19.00019704	28
371	2777	19.25005864	29
371	2810	19.50005864	30
371	2843	19.75005864	31
371	2924	20.00019704	32
371	3065	20.25005864	33
371	3099	20.500706336934	34
371	3132	20.750706336934	35
371	3213	21.001527936376	36
371	3246	21.251389536376	37
371	3280	21.502081785158	38
371	3313	21.752081785158	39
371	3394	22.002887240542	40
371	3427	22.252748840542	41
371	3461	22.503360403488	42
371	3494	22.753360403488	43
371	3575	23.004039729727	44
371	3608	23.253901329727	45
371	3642	23.504378870656	46
371	3675	23.754378870656	47
371	3756	24.00496190684	48
371	3789	24.25482350684	49
371	3823	24.505282666168	50
371	3856	24.755282666168	51
371	3937	25.005947017	52
371	3980	25.255808617	53
371	4014	25.506443560872	54
371	4047	25.756443560872	55
371	4128	26.007344340259	56
371	4161	26.257205940259	57
371	4195	26.508081925504	58
371	4228	26.758081925504	59
371	4331	27.259024916031	61
371	4365	27.509963930465	62
371	4398	27.759963930465	63
371	4479	28.01095784217	64
371	4512	28.26081944217	65
371	4546	28.511523129231	66
371	4649	29.012175107382	68
371	4682	29.262036707382	69
371	4716	29.51236488175	70
371	4749	29.76236488175	71
371	4830	30.01269699	72
371	4971	30.26255859	73
371	5005	30.512706899382	74
371	5038	30.762706899382	75
371	5119	31.013057069866	76
371	5152	31.262918669866	77
371	5186	31.513297745452	78
371	5219	31.763297745452	79
371	5300	32.014055716746	80
371	5333	32.263917316746	81
371	5367	32.514799697559	82
371	5400	32.764799697559	83
371	5481	33.016045254514	84
371	5537	33.517144758183	86
371	5570	33.767144758183	87
371	5651	34.018519866062	88
371	5684	34.268381466062	89
371	5718	34.519475521792	90
371	5751	34.769475521792	91
371	5832	35.020446959	92
371	5875	35.270308559	93
371	5909	35.520814617088	94
371	5942	35.770814617088	95
371	6023	36.021137412642	96
371	6056	36.270999012642	97
371	6090	36.520941673335	98
371	6123	36.770941673335	99
371	6204	37.020921628211	100
371	6237	37.270783228211	101
371	6271	37.520696120583	102
371	6304	37.770696120583	103
371	6385	38.020985055118	104
371	6418	38.270846655118	105
371	6452	38.521356331379	106
371	6485	38.771356331379	107
371	6566	39.022409818859	108
371	6599	39.272271418859	109
371	6633	39.523548264567	110
371	6666	39.773548264567	111
371	6854	40.02519694	112
371	7012	40.27505854	113
371	7045	40.52505854	114
371	7078	40.77505854	115
371	7203	41.02519694	116
371	7236	41.27505854	117
371	7269	41.52505854	118
371	7302	41.77505854	119
371	7382	42.02519694	120
371	7415	42.27505854	121
371	7448	42.52505854	122
371	7550	43.02519694	124
371	7583	43.27505854	125
371	7616	43.52505854	126
371	7649	43.77505854	127
371	7751	44.27505854	129
371	7784	44.52505854	130
371	7817	44.77505854	131
371	7969	45.00019704	132
371	8002	45.25005864	133
371	8035	45.50005864	134
371	8068	45.75005864	135
371	8200	46.00019704	136
371	8233	46.25005864	137
371	8266	46.50005864	138
371	8299	46.75005864	139
371	8377	47.00019704	140
371	8410	47.25005864	141
371	8443	47.50005864	142
371	8476	47.75005864	143
371	8554	48.00019704	144
371	8587	48.25005864	145
371	8620	48.50005864	146
371	8653	48.75005864	147
371	8731	49.00019704	148
371	8764	49.25005864	149
371	8797	49.50005864	150
371	8830	49.75005864	151
371	8964	50.00019704	152
371	9075	50.25005864	153
371	9108	50.50005864	154
371	9141	50.75005864	155
371	9273	51.00019704	156
371	9306	51.25005864	157
371	9339	51.50005864	158
371	9372	51.75005864	159
371	9450	52.00019704	160
371	9483	52.25005864	161
371	9516	52.50005864	162
371	9549	52.75005864	163
371	9627	53.00019704	164
371	9660	53.25005864	165
371	9693	53.50005864	166
371	9726	53.75005864	167
371	9804	54.00019704	168
371	9837	54.25005864	169
371	9870	54.50005864	170
371	9903	54.75005864	171
371	9981	55.00019704	172
371	10014	55.25005864	173
371	10047	55.50005864	174
371	10080	55.75005864	175
371	10158	56.00019704	176
371	10191	56.25005864	177
371	10224	56.50005864	178
371	10257	56.75005864	179
371	10335	57.00019704	180
371	10368	57.25005864	181
371	10401	57.50005864	182
371	10434	57.75005864	183
371	10512	58.00019704	184
371	10545	58.25005864	185
371	10578	58.50005864	186
371	10611	58.75005864	187
371	10689	59.00019704	188
371	10722	59.25005864	189
371	10755	59.50005864	190
371	10788	59.75005864	191
372	0	0	1e-07
372	2845	20	1e-07
372	3067	20.5	0.000647796934
372	3149	21	0.001330996376
372	3248	21.5	0.002023245158
372	3330	22	0.002690300542
372	3429	22.5	0.003301863488
372	3511	23	0.003842789727
372	3610	23.5	0.004320330656
372	3692	24	0.00476496684
372	3791	24.5	0.005224126168
372	3873	25	0.005750077
372	3982	25.5	0.006385020872
372	4064	26	0.007147400259
372	4163	26.5	0.008023385504
372	4245	27	0.008966376031
372	4333	27.5	0.009905390465
372	4415	28	0.01076090217
372	4514	28.5	0.011464589231
372	4585	29	0.011978167382
372	4684	29.5	0.01230634175
372	4766	30	0.01250005
372	4973	30.5	0.012648359382
372	5055	31	0.012860129866
372	5154	31.5	0.013239205452
372	5236	32	0.013858776746
372	5335	32.5	0.014741157559
372	5417	33	0.015848314514
372	5505	33.5	0.017086218183
372	5587	34	0.018322926062
372	5686	34.5	0.019416981792
372	5768	35	0.020250019
372	5877	35.5	0.020756077088
372	5959	36	0.020940472642
372	6058	36.5	0.020883133335
372	6140	37	0.020724688211
372	6239	37.5	0.020637580583
372	6321	38	0.020788115118
372	6420	38.5	0.021297791379
372	6502	39	0.022212878859
372	6601	39.5	0.023489724567
372	6685	40	0.025
373	0	0	0
373	2845	20	0
373	3067	20.5	0.001295399049974
373	3149	21	0.002661803398875
373	3248	21.5	0.0040463065021785
373	3330	22	0.0053804226065181
373	3429	22.5	0.0066035533905933
373	3511	23	0.007685410196625
373	3610	23.5	0.0086404958744718
373	3692	24	0.009529771798166
373	3791	24.5	0.01044809412823
373	3873	25	0.0115
373	3982	25.5	0.012769892823393
373	4064	26	0.014294657697249
373	4163	26.5	0.016046635195448
373	4245	27	0.017932623792125
373	4333	27.5	0.01981066017178
373	4415	28	0.021521690426072
373	4514	28.5	0.022929070179012
373	4585	29	0.023956230589875
373	4684	29.5	0.024612581949505
373	4766	30	0.025
373	4973	30.5	0.025296619950547
373	5055	31	0.025720162612375
373	5154	31.5	0.026478316816631
373	5236	32	0.027717464360892
373	5335	32.5	0.029482233047034
373	5417	33	0.031696555814625
373	5505	33.5	0.034172373055609
373	5587	34	0.036645798706419
373	5686	34.5	0.038833918920146
373	5768	35	0.0405
373	5877	35.5	0.041512120224984
373	5959	36	0.041880912807336
373	6058	36.5	0.041766233734633
373	6140	37	0.041449342219125
373	6239	37.5	0.041275126265847
373	6321	38	0.041576196541337
373	6420	38.5	0.042595553139798
373	6502	39	0.044425735421375
373	6601	39.5	0.046979437051016
373	6685	40	0.05

