version 3
run ProactiveSwitch-0-20260330-12:50:31-26604
attr configname ProactiveSwitch
attr datetime 20260330-12:50:31
attr datetimef 20260330-125031
attr experiment ProactiveSwitch
attr inifile omnetpp.ini
attr iterationvars ""
attr iterationvarsd ""
attr iterationvarsf ""
attr measurement ""
attr network dissertationsim.simulations.proactiveswitch.ProactiveSwitch
attr processid 26604
attr repetition 0
attr replication #0
attr resultdir results
attr runnumber 0
attr seedset 0
config image-path ../../../inet4.5/images
config description "Administrative withdrawal of the primary r2-r3 path at 18s, followed by physical disconnect at 20s"
config network dissertationsim.simulations.proactiveswitch.ProactiveSwitch
config sim-time-limit 60s
config output-scalar-file ../../results/proactiveswitch/eval/ProactiveSwitch-0.sca
config output-vector-file ../../results/proactiveswitch/eval/ProactiveSwitch-0.vec
config eventlog-file ../../results/proactiveswitch/debug/ProactiveSwitch-0.elog
config record-eventlog false
config **.ospf.ospfConfig "xmldoc(\"ASConfig.xml\")"
config **.hostA.numApps 1
config **.hostB.numApps 1
config **.hostA.app[0].typename UdpBasicApp
config **.hostA.app[0].destAddresses "\"hostB\""
config **.hostA.app[0].destPort 5000
config **.hostA.app[0].messageLength 512B
config **.hostA.app[0].sendInterval 1s
config **.hostA.app[0].startTime 10s
config **.hostB.app[0].typename UdpSink
config **.hostB.app[0].localPort 5000
config **.scenarioManager.script "xml(         \"<script>\\n\" +         \"<at t='20s'><disconnect src-module='r2' src-gate='ethg$o[1]'/></at>\\n\" +         \"<at t='20s'><disconnect src-module='r3' src-gate='ethg$o[0]'/></at>\\n\" +         \"</script>\")"
config **.app[0].packetSent.result-recording-modes count
config **.app[0].packetReceived.result-recording-modes count
config **.hostB.app[0].throughput.result-recording-modes vector
config **.hostB.app[0].rcvdPkSeqNo.result-recording-modes vector
config **.ipv4.ip.packetDropNoRouteFound.result-recording-modes count
config **.ipv4.ip.packetDropInterfaceDown.result-recording-modes count

par ProactiveSwitch.hostA.ethg$o[0].channel typename "\"dissertationsim.simulations.proactiveswitch.ProactiveSwitch.Eth100M\""
par ProactiveSwitch.hostA.ethg$o[0].channel disabled false
attr mutable ""
par ProactiveSwitch.hostA.ethg$o[0].channel delay 1e-07s
attr mutable ""
attr unit s
par ProactiveSwitch.hostA.ethg$o[0].channel datarate 1e+08bps
attr mutable ""
attr unit bps
par ProactiveSwitch.hostA.ethg$o[0].channel ber 0
attr mutable ""
par ProactiveSwitch.hostA.ethg$o[0].channel per 0
attr mutable ""
par ProactiveSwitch.hostA.ethg$o[0].channel displayAsTooltip false
par ProactiveSwitch.hostA.ethg$o[0].channel thruputDisplayFormat "\"#N\""
par ProactiveSwitch.r1.ethg$o[0].channel typename "\"dissertationsim.simulations.proactiveswitch.ProactiveSwitch.Eth100M\""
par ProactiveSwitch.r1.ethg$o[0].channel disabled false
attr mutable ""
par ProactiveSwitch.r1.ethg$o[0].channel delay 1e-07s
attr mutable ""
attr unit s
par ProactiveSwitch.r1.ethg$o[0].channel datarate 1e+08bps
attr mutable ""
attr unit bps
par ProactiveSwitch.r1.ethg$o[0].channel ber 0
attr mutable ""
par ProactiveSwitch.r1.ethg$o[0].channel per 0
attr mutable ""
par ProactiveSwitch.r1.ethg$o[0].channel displayAsTooltip false
par ProactiveSwitch.r1.ethg$o[0].channel thruputDisplayFormat "\"#N\""
par ProactiveSwitch.r1.ethg$o[1].channel typename "\"dissertationsim.simulations.proactiveswitch.ProactiveSwitch.Eth100M\""
par ProactiveSwitch.r1.ethg$o[1].channel disabled false
attr mutable ""
par ProactiveSwitch.r1.ethg$o[1].channel delay 1e-07s
attr mutable ""
attr unit s
par ProactiveSwitch.r1.ethg$o[1].channel datarate 1e+08bps
attr mutable ""
attr unit bps
par ProactiveSwitch.r1.ethg$o[1].channel ber 0
attr mutable ""
par ProactiveSwitch.r1.ethg$o[1].channel per 0
attr mutable ""
par ProactiveSwitch.r1.ethg$o[1].channel displayAsTooltip false
par ProactiveSwitch.r1.ethg$o[1].channel thruputDisplayFormat "\"#N\""
par ProactiveSwitch.r2.ethg$o[0].channel typename "\"dissertationsim.simulations.proactiveswitch.ProactiveSwitch.Eth100M\""
par ProactiveSwitch.r2.ethg$o[0].channel disabled false
attr mutable ""
par ProactiveSwitch.r2.ethg$o[0].channel delay 1e-07s
attr mutable ""
attr unit s
par ProactiveSwitch.r2.ethg$o[0].channel datarate 1e+08bps
attr mutable ""
attr unit bps
par ProactiveSwitch.r2.ethg$o[0].channel ber 0
attr mutable ""
par ProactiveSwitch.r2.ethg$o[0].channel per 0
attr mutable ""
par ProactiveSwitch.r2.ethg$o[0].channel displayAsTooltip false
par ProactiveSwitch.r2.ethg$o[0].channel thruputDisplayFormat "\"#N\""
par ProactiveSwitch.r1.ethg$o[2].channel typename "\"dissertationsim.simulations.proactiveswitch.ProactiveSwitch.Eth100M\""
par ProactiveSwitch.r1.ethg$o[2].channel disabled false
attr mutable ""
par ProactiveSwitch.r1.ethg$o[2].channel delay 1e-07s
attr mutable ""
attr unit s
par ProactiveSwitch.r1.ethg$o[2].channel datarate 1e+08bps
attr mutable ""
attr unit bps
par ProactiveSwitch.r1.ethg$o[2].channel ber 0
attr mutable ""
par ProactiveSwitch.r1.ethg$o[2].channel per 0
attr mutable ""
par ProactiveSwitch.r1.ethg$o[2].channel displayAsTooltip false
par ProactiveSwitch.r1.ethg$o[2].channel thruputDisplayFormat "\"#N\""
par ProactiveSwitch.r4.ethg$o[0].channel typename "\"dissertationsim.simulations.proactiveswitch.ProactiveSwitch.Eth100M\""
par ProactiveSwitch.r4.ethg$o[0].channel disabled false
attr mutable ""
par ProactiveSwitch.r4.ethg$o[0].channel delay 1e-07s
attr mutable ""
attr unit s
par ProactiveSwitch.r4.ethg$o[0].channel datarate 1e+08bps
attr mutable ""
attr unit bps
par ProactiveSwitch.r4.ethg$o[0].channel ber 0
attr mutable ""
par ProactiveSwitch.r4.ethg$o[0].channel per 0
attr mutable ""
par ProactiveSwitch.r4.ethg$o[0].channel displayAsTooltip false
par ProactiveSwitch.r4.ethg$o[0].channel thruputDisplayFormat "\"#N\""
par ProactiveSwitch.r4.ethg$o[1].channel typename "\"dissertationsim.simulations.proactiveswitch.ProactiveSwitch.Eth100M\""
par ProactiveSwitch.r4.ethg$o[1].channel disabled false
attr mutable ""
par ProactiveSwitch.r4.ethg$o[1].channel delay 1e-07s
attr mutable ""
attr unit s
par ProactiveSwitch.r4.ethg$o[1].channel datarate 1e+08bps
attr mutable ""
attr unit bps
par ProactiveSwitch.r4.ethg$o[1].channel ber 0
attr mutable ""
par ProactiveSwitch.r4.ethg$o[1].channel per 0
attr mutable ""
par ProactiveSwitch.r4.ethg$o[1].channel displayAsTooltip false
par ProactiveSwitch.r4.ethg$o[1].channel thruputDisplayFormat "\"#N\""
par ProactiveSwitch.r3.ethg$o[1].channel typename "\"dissertationsim.simulations.proactiveswitch.ProactiveSwitch.Eth100M\""
par ProactiveSwitch.r3.ethg$o[1].channel disabled false
attr mutable ""
par ProactiveSwitch.r3.ethg$o[1].channel delay 1e-07s
attr mutable ""
attr unit s
par ProactiveSwitch.r3.ethg$o[1].channel datarate 1e+08bps
attr mutable ""
attr unit bps
par ProactiveSwitch.r3.ethg$o[1].channel ber 0
attr mutable ""
par ProactiveSwitch.r3.ethg$o[1].channel per 0
attr mutable ""
par ProactiveSwitch.r3.ethg$o[1].channel displayAsTooltip false
par ProactiveSwitch.r3.ethg$o[1].channel thruputDisplayFormat "\"#N\""
par ProactiveSwitch.r3.ethg$o[2].channel typename "\"dissertationsim.simulations.proactiveswitch.ProactiveSwitch.Eth100M\""
par ProactiveSwitch.r3.ethg$o[2].channel disabled false
attr mutable ""
par ProactiveSwitch.r3.ethg$o[2].channel delay 1e-07s
attr mutable ""
attr unit s
par ProactiveSwitch.r3.ethg$o[2].channel datarate 1e+08bps
attr mutable ""
attr unit bps
par ProactiveSwitch.r3.ethg$o[2].channel ber 0
attr mutable ""
par ProactiveSwitch.r3.ethg$o[2].channel per 0
attr mutable ""
par ProactiveSwitch.r3.ethg$o[2].channel displayAsTooltip false
par ProactiveSwitch.r3.ethg$o[2].channel thruputDisplayFormat "\"#N\""
par ProactiveSwitch.hostB.ethg$o[0].channel typename "\"dissertationsim.simulations.proactiveswitch.ProactiveSwitch.Eth100M\""
par ProactiveSwitch.hostB.ethg$o[0].channel disabled false
attr mutable ""
par ProactiveSwitch.hostB.ethg$o[0].channel delay 1e-07s
attr mutable ""
attr unit s
par ProactiveSwitch.hostB.ethg$o[0].channel datarate 1e+08bps
attr mutable ""
attr unit bps
par ProactiveSwitch.hostB.ethg$o[0].channel ber 0
attr mutable ""
par ProactiveSwitch.hostB.ethg$o[0].channel per 0
attr mutable ""
par ProactiveSwitch.hostB.ethg$o[0].channel displayAsTooltip false
par ProactiveSwitch.hostB.ethg$o[0].channel thruputDisplayFormat "\"#N\""
par ProactiveSwitch.hostA.ethg$i[0].channel typename "\"ned.IdealChannel\""
par ProactiveSwitch.hostA.eth[0].phys$o.channel typename "\"ned.IdealChannel\""
par ProactiveSwitch.hostA.interfaceTable typename "\"inet.networklayer.common.InterfaceTable\""
par ProactiveSwitch.hostA.interfaceTable displayAddresses false
par ProactiveSwitch.hostA.cb typename "\"inet.common.MessageDispatcher\""
par ProactiveSwitch.hostA.cb displayStringTextFormat "\"processed %p pk (%l)\""
par ProactiveSwitch.hostA.cb forwardServiceRegistration true
par ProactiveSwitch.hostA.cb forwardProtocolRegistration true
par ProactiveSwitch.hostA.bl typename "\"inet.common.MessageDispatcher\""
par ProactiveSwitch.hostA.bl displayStringTextFormat "\"processed %p pk (%l)\""
par ProactiveSwitch.hostA.bl forwardServiceRegistration true
par ProactiveSwitch.hostA.bl forwardProtocolRegistration true
par ProactiveSwitch.hostA.ethernet typename "\"inet.linklayer.ethernet.basic.EthernetEncapsulation\""
par ProactiveSwitch.hostA.ethernet registerProtocol true
par ProactiveSwitch.hostA.ethernet interfaceTableModule "\"ProactiveSwitch.hostA.interfaceTable\""
par ProactiveSwitch.hostA.ethernet fcsMode "\"declared\""
attr enum declared,computed
par ProactiveSwitch.hostA.ethernet stopOperationExtraTime -1s
attr unit s
par ProactiveSwitch.hostA.ethernet stopOperationTimeout 2s
attr unit s
scalar ProactiveSwitch.hostA.ethernet decapPk:count 7
attr interpolationmode none
attr recordingmode count
attr source decapPk
attr title "packets decapsulated, count"
scalar ProactiveSwitch.hostA.ethernet decapPk:sum(packetBytes) 430
attr interpolationmode none
attr recordingmode sum(packetBytes)
attr source decapPk
attr title "packets decapsulated, sum(packetBytes)"
scalar ProactiveSwitch.hostA.ethernet encapPk:count 52
attr interpolationmode none
attr recordingmode count
attr source encapPk
attr title "packets encapsulated, count"
scalar ProactiveSwitch.hostA.ethernet encapPk:sum(packetBytes) 27568
attr interpolationmode none
attr recordingmode sum(packetBytes)
attr source encapPk
attr title "packets encapsulated, sum(packetBytes)"
scalar ProactiveSwitch.hostA.ethernet pauseSent:count 0
attr recordingmode count
attr title "pause sent, count"
scalar ProactiveSwitch.hostA.ethernet pauseSent:sum 0
attr recordingmode sum
attr title "pause sent, sum"
par ProactiveSwitch.hostA.li typename "\"inet.common.MessageDispatcher\""
par ProactiveSwitch.hostA.li displayStringTextFormat "\"processed %p pk (%l)\""
par ProactiveSwitch.hostA.li forwardServiceRegistration true
par ProactiveSwitch.hostA.li forwardProtocolRegistration true
par ProactiveSwitch.hostA.lo[0].upperLayerIn.channel typename "\"ned.IdealChannel\""
par ProactiveSwitch.hostA.lo[0].lo.upperLayerOut.channel typename "\"ned.IdealChannel\""
par ProactiveSwitch.hostA.lo[0].lo typename "\"inet.linklayer.loopback.Loopback\""
par ProactiveSwitch.hostA.lo[0].lo interfaceTableModule "\"ProactiveSwitch.hostA.interfaceTable\""
par ProactiveSwitch.hostA.lo[0].lo mtu 4470B
attr unit B
scalar ProactiveSwitch.hostA.lo[0].lo rcvdPkFromHl:count 0
attr interpolationmode none
attr recordingmode count
attr source packetReceivedFromUpper
attr title "packets received from higher layer, count"
scalar ProactiveSwitch.hostA.lo[0].lo rcvdPkFromHl:sum(packetBytes) 0
attr interpolationmode none
attr recordingmode sum(packetBytes)
attr source packetReceivedFromUpper
attr title "packets received from higher layer, sum(packetBytes)"
scalar ProactiveSwitch.hostA.lo[0].lo passedUpPk:count 0
attr interpolationmode none
attr recordingmode count
attr source packetSentToUpper
attr title "packets passed to higher layer, count"
scalar ProactiveSwitch.hostA.lo[0].lo passedUpPk:sum(packetBytes) 0
attr interpolationmode none
attr recordingmode sum(packetBytes)
attr source packetSentToUpper
attr title "packets passed to higher layer, sum(packetBytes)"
par ProactiveSwitch.hostA.lo[0] typename "\"inet.linklayer.loopback.LoopbackInterface\""
par ProactiveSwitch.hostA.lo[0] displayStringTextFormat "\"%a (%i)\\n%m\""
par ProactiveSwitch.hostA.lo[0] recordPcap false
par ProactiveSwitch.hostA.lo[0] numPcapRecorders 0
par ProactiveSwitch.hostA.lo[0] interfaceTableModule "\"ProactiveSwitch.hostA.interfaceTable\""
scalar ProactiveSwitch.hostA.lo[0] packetDropInterfaceDown:count 0
attr interpolationmode none
attr recordingmode count
attr source packetDropReasonIsInterfaceDown(packetDropped)
attr title "packet drops: interface down, count"
scalar ProactiveSwitch.hostA.lo[0] packetDropInterfaceDown:sum(packetBytes) 0
attr interpolationmode none
attr recordingmode sum(packetBytes)
attr source packetDropReasonIsInterfaceDown(packetDropped)
attr title "packet drops: interface down, sum(packetBytes)"
scalar ProactiveSwitch.hostA.lo[0] packetDropNoCarrier:count 0
attr interpolationmode none
attr recordingmode count
attr source packetDropReasonIsNoCarrier(packetDropped)
attr title "packet drops: no carrier, count"
scalar ProactiveSwitch.hostA.lo[0] packetDropNoCarrier:sum(packetBytes) 0
attr interpolationmode none
attr recordingmode sum(packetBytes)
attr source packetDropReasonIsNoCarrier(packetDropped)
attr title "packet drops: no carrier, sum(packetBytes)"
par ProactiveSwitch.hostA.eth[0].mac.phys$o.channel typename "\"ned.IdealChannel\""
par ProactiveSwitch.hostA.eth[0].phys$i.channel typename "\"ned.IdealChannel\""
par ProactiveSwitch.hostA.eth[0].upperLayerIn.channel typename "\"ned.IdealChannel\""
par ProactiveSwitch.hostA.eth[0].mac.upperLayerOut.channel typename "\"ned.IdealChannel\""
par ProactiveSwitch.hostA.eth[0].queue typename "\"inet.linklayer.ethernet.common.EthernetQueue\""
par ProactiveSwitch.hostA.eth[0].queue displayStringTextFormat "\"contains %p pk (%l) pushed %u\\npulled %o removed %r dropped %d\""
par ProactiveSwitch.hostA.eth[0].queue packetCapacity 1000
par ProactiveSwitch.hostA.eth[0].queue dataCapacity -1b
attr unit b
par ProactiveSwitch.hostA.eth[0].queue dropperClass "\"inet::queueing::PacketAtCollectionEndDropper\""
par ProactiveSwitch.hostA.eth[0].queue comparatorClass "\"inet::EthernetFrameTypeComparator\""
par ProactiveSwitch.hostA.eth[0].queue bufferModule "\"\""
scalar ProactiveSwitch.hostA.eth[0].queue queueLength:last 0
attr autoWarmupFilter false
attr interpolationmode sample-hold
attr recordingmode last
attr source "warmup(atomic(constant0(packetPushEnded) + count(packetPushStarted) - count(packetPulled) - count(packetRemoved) - count(packetDropped)))"
attr title "queue length, last"
attr unit pk
scalar ProactiveSwitch.hostA.eth[0].queue queueLength:max 0
attr autoWarmupFilter false
attr interpolationmode sample-hold
attr recordingmode max
attr source "warmup(atomic(constant0(packetPushEnded) + count(packetPushStarted) - count(packetPulled) - count(packetRemoved) - count(packetDropped)))"
attr title "queue length, max"
attr unit pk
scalar ProactiveSwitch.hostA.eth[0].queue queueLength:timeavg 0
attr autoWarmupFilter false
attr interpolationmode sample-hold
attr recordingmode timeavg
attr source "warmup(atomic(constant0(packetPushEnded) + count(packetPushStarted) - count(packetPulled) - count(packetRemoved) - count(packetDropped)))"
attr title "queue length, timeavg"
attr unit pk
scalar ProactiveSwitch.hostA.eth[0].queue queueBitLength:last 0
attr autoWarmupFilter false
attr interpolationmode sample-hold
attr recordingmode last
attr source "warmup(atomic(constant0(packetPushEnded) + sum(packetLength(packetPushStarted)) - sum(packetLength(packetPulled)) - sum(packetLength(packetRemoved)) - sum(packetLength(packetDropped))))"
attr title "queue bit length, last"
attr unit b
scalar ProactiveSwitch.hostA.eth[0].queue queueBitLength:max 0
attr autoWarmupFilter false
attr interpolationmode sample-hold
attr recordingmode max
attr source "warmup(atomic(constant0(packetPushEnded) + sum(packetLength(packetPushStarted)) - sum(packetLength(packetPulled)) - sum(packetLength(packetRemoved)) - sum(packetLength(packetDropped))))"
attr title "queue bit length, max"
attr unit b
scalar ProactiveSwitch.hostA.eth[0].queue queueBitLength:timeavg 0
attr autoWarmupFilter false
attr interpolationmode sample-hold
attr recordingmode timeavg
attr source "warmup(atomic(constant0(packetPushEnded) + sum(packetLength(packetPushStarted)) - sum(packetLength(packetPulled)) - sum(packetLength(packetRemoved)) - sum(packetLength(packetDropped))))"
attr title "queue bit length, timeavg"
attr unit b
statistic ProactiveSwitch.hostA.eth[0].queue queueingTime:histogram
field count 52
field mean 0
field stddev 0
field min 0
field max 0
field sum 0
field sqrsum 0
attr interpolationmode none
attr recordingmode histogram
attr source queueingTime(packetPulled)
attr title "queueing times"
attr unit s
bin	-inf	0
bin	-0.5	0
bin	-0.48	0
bin	-0.46	0
bin	-0.44	0
bin	-0.42	0
bin	-0.4	0
bin	-0.38	0
bin	-0.36	0
bin	-0.34	0
bin	-0.32	0
bin	-0.3	0
bin	-0.28	0
bin	-0.26	0
bin	-0.24	0
bin	-0.22	0
bin	-0.2	0
bin	-0.18	0
bin	-0.16	0
bin	-0.14	0
bin	-0.12	0
bin	-0.1	0
bin	-0.08	0
bin	-0.06	0
bin	-0.04	0
bin	-0.02	0
bin	0	52
bin	0.02	0
bin	0.04	0
bin	0.06	0
bin	0.08	0
bin	0.1	0
bin	0.12	0
bin	0.14	0
bin	0.16	0
bin	0.18	0
bin	0.2	0
bin	0.22	0
bin	0.24	0
bin	0.26	0
bin	0.28	0
bin	0.3	0
bin	0.32	0
bin	0.34	0
bin	0.36	0
bin	0.38	0
bin	0.4	0
bin	0.42	0
bin	0.44	0
bin	0.46	0
bin	0.48	0
bin	0.5	0
scalar ProactiveSwitch.hostA.eth[0].queue outgoingPackets:count 52
attr recordingmode count
attr source packetPulled
attr title "outgoing packets, count"
attr unit pk
scalar ProactiveSwitch.hostA.eth[0].queue outgoingPacketLengths:sum 228032
attr interpolationmode none
attr recordingmode sum
attr source packetLength(packetPulled)
attr title "outgoing packet lengths, sum"
attr unit b
statistic ProactiveSwitch.hostA.eth[0].queue outgoingPacketLengths:histogram
field count 52
field mean 4385.2307692308
field stddev 568.01300093464
field min 368
field max 4464
field sum 228032
field sqrsum 1016427520
attr interpolationmode none
attr recordingmode histogram
attr source packetLength(packetPulled)
attr title "outgoing packet lengths"
attr unit b
bin	-inf	0
bin	0	0
bin	100	0
bin	200	0
bin	300	1
bin	400	0
bin	500	0
bin	600	0
bin	700	0
bin	800	0
bin	900	0
bin	1000	0
bin	1100	0
bin	1200	0
bin	1300	0
bin	1400	0
bin	1500	0
bin	1600	0
bin	1700	0
bin	1800	0
bin	1900	0
bin	2000	0
bin	2100	0
bin	2200	0
bin	2300	0
bin	2400	0
bin	2500	0
bin	2600	0
bin	2700	0
bin	2800	0
bin	2900	0
bin	3000	0
bin	3100	0
bin	3200	0
bin	3300	0
bin	3400	0
bin	3500	0
bin	3600	0
bin	3700	0
bin	3800	0
bin	3900	0
bin	4000	0
bin	4100	0
bin	4200	0
bin	4300	0
bin	4400	51
bin	4500	0
bin	4600	0
bin	4700	0
bin	4800	0
bin	4900	0
bin	5000	0
bin	5100	0
bin	5200	0
bin	5300	0
bin	5400	0
bin	5500	0
statistic ProactiveSwitch.hostA.eth[0].queue flowQueueingTime:histogram
field count 0
field mean -nan(ind)
field stddev nan
field min nan
field max nan
field sum 0
field sqrsum 0
attr interpolationmode none
attr recordingmode histogram
attr source queueingTime(demuxFlow(packetPulled))
attr title "flow queueing times"
attr unit s
bin	-inf	0
bin	0	0
bin	1	0
scalar ProactiveSwitch.hostA.eth[0].queue incomingPackets:count 52
attr recordingmode count
attr source packetPushStarted
attr title "incoming packets, count"
attr unit pk
scalar ProactiveSwitch.hostA.eth[0].queue incomingPacketLengths:sum 228032
attr interpolationmode none
attr recordingmode sum
attr source packetLength(packetPushStarted)
attr title "incoming packet lengths, sum"
attr unit b
statistic ProactiveSwitch.hostA.eth[0].queue incomingPacketLengths:histogram
field count 52
field mean 4385.2307692308
field stddev 568.01300093464
field min 368
field max 4464
field sum 228032
field sqrsum 1016427520
attr interpolationmode none
attr recordingmode histogram
attr source packetLength(packetPushStarted)
attr title "incoming packet lengths"
attr unit b
bin	-inf	0
bin	0	0
bin	100	0
bin	200	0
bin	300	1
bin	400	0
bin	500	0
bin	600	0
bin	700	0
bin	800	0
bin	900	0
bin	1000	0
bin	1100	0
bin	1200	0
bin	1300	0
bin	1400	0
bin	1500	0
bin	1600	0
bin	1700	0
bin	1800	0
bin	1900	0
bin	2000	0
bin	2100	0
bin	2200	0
bin	2300	0
bin	2400	0
bin	2500	0
bin	2600	0
bin	2700	0
bin	2800	0
bin	2900	0
bin	3000	0
bin	3100	0
bin	3200	0
bin	3300	0
bin	3400	0
bin	3500	0
bin	3600	0
bin	3700	0
bin	3800	0
bin	3900	0
bin	4000	0
bin	4100	0
bin	4200	0
bin	4300	0
bin	4400	51
bin	4500	0
bin	4600	0
bin	4700	0
bin	4800	0
bin	4900	0
bin	5000	0
bin	5100	0
bin	5200	0
bin	5300	0
bin	5400	0
bin	5500	0
scalar ProactiveSwitch.hostA.eth[0].queue droppedPacketsQueueOverflow:count 0
attr interpolationmode none
attr recordingmode count
attr source packetDropReasonIsQueueOverflow(packetDropped)
attr title "dropped packets: queue overflow, count"
attr unit pk
scalar ProactiveSwitch.hostA.eth[0].queue droppedPacketLengthsQueueOverflow:sum 0
attr interpolationmode none
attr recordingmode sum
attr source packetLength(packetDropReasonIsQueueOverflow(packetDropped))
attr title "dropped packet lengths: queue overflow, sum"
attr unit b
par ProactiveSwitch.hostA.eth[0].mac typename "\"inet.linklayer.ethernet.basic.EthernetMac\""
par ProactiveSwitch.hostA.eth[0].mac interfaceTableModule "\"ProactiveSwitch.hostA.interfaceTable\""
par ProactiveSwitch.hostA.eth[0].mac displayStringTextFormat "\"rate: %b\\nsent: %s, rcvd: %r\\nqueue: %q, drop: %d\""
par ProactiveSwitch.hostA.eth[0].mac sendRawBytes false
par ProactiveSwitch.hostA.eth[0].mac promiscuous false
par ProactiveSwitch.hostA.eth[0].mac duplexMode true
par ProactiveSwitch.hostA.eth[0].mac mtu 1500B
attr unit B
par ProactiveSwitch.hostA.eth[0].mac fcsMode "\"declared\""
attr enum declared,computed
par ProactiveSwitch.hostA.eth[0].mac stopOperationExtraTime -1s
attr unit s
par ProactiveSwitch.hostA.eth[0].mac stopOperationTimeout 2s
attr unit s
scalar ProactiveSwitch.hostA.eth[0].mac "simulated time" 60
scalar ProactiveSwitch.hostA.eth[0].mac full-duplex 1
scalar ProactiveSwitch.hostA.eth[0].mac "frames/sec sent" 0.85
scalar ProactiveSwitch.hostA.eth[0].mac "frames/sec rcvd" 0.11666666666667
scalar ProactiveSwitch.hostA.eth[0].mac "bits/sec sent" 3728.5333333333
scalar ProactiveSwitch.hostA.eth[0].mac "bits/sec rcvd" 74.133333333333
scalar ProactiveSwitch.hostA.eth[0].mac "rx channel idle (%)" 99.9999184
scalar ProactiveSwitch.hostA.eth[0].mac "rx channel utilization (%)" 8.16e-05
scalar ProactiveSwitch.hostA.eth[0].mac txPk:count 51
attr interpolationmode none
attr recordingmode count
attr source packetSentToLower
attr title "packets transmitted, count"
scalar ProactiveSwitch.hostA.eth[0].mac txPk:sum(packetBytes) 27964
attr interpolationmode none
attr recordingmode sum(packetBytes)
attr source packetSentToLower
attr title "packets transmitted, sum(packetBytes)"
scalar ProactiveSwitch.hostA.eth[0].mac packetReceivedFromUpper:count 52
attr interpolationmode none
attr recordingmode count
attr source packetReceivedFromUpper
attr title "packet bytes from higher layer, count"
scalar ProactiveSwitch.hostA.eth[0].mac packetReceivedFromUpper:sum(packetBytes) 28504
attr interpolationmode none
attr recordingmode sum(packetBytes)
attr source packetReceivedFromUpper
attr title "packet bytes from higher layer, sum(packetBytes)"
scalar ProactiveSwitch.hostA.eth[0].mac passedUpPk:count 7
attr interpolationmode none
attr recordingmode count
attr source packetSentToUpper
attr title "packets passed to higher layer, count"
scalar ProactiveSwitch.hostA.eth[0].mac passedUpPk:sum(packetBytes) 556
attr interpolationmode none
attr recordingmode sum(packetBytes)
attr source packetSentToUpper
attr title "packets passed to higher layer, sum(packetBytes)"
scalar ProactiveSwitch.hostA.eth[0].mac packetDropIncorrectlyReceived:count 0
attr interpolationmode none
attr recordingmode count
attr source packetDropReasonIsIncorrectlyReceived(packetDropped)
attr title "packet drop: incorrectly received, count"
scalar ProactiveSwitch.hostA.eth[0].mac packetDropIncorrectlyReceived:sum(packetBytes) 0
attr interpolationmode none
attr recordingmode sum(packetBytes)
attr source packetDropReasonIsIncorrectlyReceived(packetDropped)
attr title "packet drop: incorrectly received, sum(packetBytes)"
scalar ProactiveSwitch.hostA.eth[0].mac packetDropInterfaceDown:count 0
attr interpolationmode none
attr recordingmode count
attr source packetDropReasonIsInterfaceDown(packetDropped)
attr title "packet drop: interface down, count"
scalar ProactiveSwitch.hostA.eth[0].mac packetDropInterfaceDown:sum(packetBytes) 0
attr interpolationmode none
attr recordingmode sum(packetBytes)
attr source packetDropReasonIsInterfaceDown(packetDropped)
attr title "packet drop: interface down, sum(packetBytes)"
scalar ProactiveSwitch.hostA.eth[0].mac packetDropNotAddressedToUs:count 0
attr interpolationmode none
attr recordingmode count
attr source packetDropReasonIsNotAddressedToUs(packetDropped)
attr title "packet drop: not addressed to us, count"
scalar ProactiveSwitch.hostA.eth[0].mac packetDropNotAddressedToUs:sum(packetBytes) 0
attr interpolationmode none
attr recordingmode sum(packetBytes)
attr source packetDropReasonIsNotAddressedToUs(packetDropped)
attr title "packet drop: not addressed to us, sum(packetBytes)"
scalar ProactiveSwitch.hostA.eth[0].mac rxPausePkUnits:count 0
attr interpolationmode none
attr recordingmode count
attr title "pause units received, count"
scalar ProactiveSwitch.hostA.eth[0].mac rxPausePkUnits:sum 0
attr interpolationmode none
attr recordingmode sum
attr title "pause units received, sum"
scalar ProactiveSwitch.hostA.eth[0].mac txPausePkUnits:count 0
attr interpolationmode none
attr recordingmode count
attr title "pause units sent, count"
scalar ProactiveSwitch.hostA.eth[0].mac txPausePkUnits:sum 0
attr interpolationmode none
attr recordingmode sum
attr title "pause units sent, sum"
scalar ProactiveSwitch.hostA.eth[0].mac rxPkOk:count 7
attr interpolationmode none
attr recordingmode count
attr source rxPkOk
attr title "packets received OK, count"
scalar ProactiveSwitch.hostA.eth[0].mac rxPkOk:sum(packetBytes) 556
attr interpolationmode none
attr recordingmode sum(packetBytes)
attr source rxPkOk
attr title "packets received OK, sum(packetBytes)"
par ProactiveSwitch.hostA.eth[0] typename "\"inet.linklayer.ethernet.EthernetInterface\""
par ProactiveSwitch.hostA.eth[0] displayStringTextFormat "\"%a (%i)\\n%m\""
par ProactiveSwitch.hostA.eth[0] recordPcap false
par ProactiveSwitch.hostA.eth[0] numPcapRecorders 0
par ProactiveSwitch.hostA.eth[0] interfaceTableModule "\"ProactiveSwitch.hostA.interfaceTable\""
par ProactiveSwitch.hostA.eth[0] protocol "\"ethernetmac\""
par ProactiveSwitch.hostA.eth[0] address "\"0A-AA-00-00-00-01\""
attr mutable ""
par ProactiveSwitch.hostA.eth[0] duplexMode true
par ProactiveSwitch.hostA.eth[0] csmacdSupport false
par ProactiveSwitch.hostA.eth[0] bitrate 0bps
attr unit bps
par ProactiveSwitch.hostA.eth[0] fcsMode "\"declared\""
attr enum declared,computed
scalar ProactiveSwitch.hostA.eth[0] packetDropInterfaceDown:count 0
attr interpolationmode none
attr recordingmode count
attr source packetDropReasonIsInterfaceDown(packetDropped)
attr title "packet drops: interface down, count"
scalar ProactiveSwitch.hostA.eth[0] packetDropInterfaceDown:sum(packetBytes) 0
attr interpolationmode none
attr recordingmode sum(packetBytes)
attr source packetDropReasonIsInterfaceDown(packetDropped)
attr title "packet drops: interface down, sum(packetBytes)"
scalar ProactiveSwitch.hostA.eth[0] packetDropNoCarrier:count 0
attr interpolationmode none
attr recordingmode count
attr source packetDropReasonIsNoCarrier(packetDropped)
attr title "packet drops: no carrier, count"
scalar ProactiveSwitch.hostA.eth[0] packetDropNoCarrier:sum(packetBytes) 0
attr interpolationmode none
attr recordingmode sum(packetBytes)
attr source packetDropReasonIsNoCarrier(packetDropped)
attr title "packet drops: no carrier, sum(packetBytes)"
par ProactiveSwitch.hostA.ipv4.transportIn.channel typename "\"ned.IdealChannel\""
par ProactiveSwitch.hostA.ipv4.up.out[0].channel typename "\"ned.IdealChannel\""
par ProactiveSwitch.hostA.ipv4.lp.out[2].channel typename "\"ned.IdealChannel\""
par ProactiveSwitch.hostA.ipv4.ifIn.channel typename "\"ned.IdealChannel\""
par ProactiveSwitch.hostA.ipv4.configurator typename "\"inet.networklayer.configurator.ipv4.Ipv4NodeConfigurator\""
par ProactiveSwitch.hostA.ipv4.configurator interfaceTableModule "\"ProactiveSwitch.hostA.interfaceTable\""
par ProactiveSwitch.hostA.ipv4.configurator routingTableModule "\"ProactiveSwitch.hostA.ipv4.routingTable\""
par ProactiveSwitch.hostA.ipv4.configurator networkConfiguratorModule "\"configurator\""
par ProactiveSwitch.hostA.ipv4.configurator configureRoutingTable true
par ProactiveSwitch.hostA.ipv4.routingTable typename "\"inet.networklayer.ipv4.Ipv4RoutingTable\""
par ProactiveSwitch.hostA.ipv4.routingTable interfaceTableModule "\"ProactiveSwitch.hostA.interfaceTable\""
par ProactiveSwitch.hostA.ipv4.routingTable routerId "\"auto\""
par ProactiveSwitch.hostA.ipv4.routingTable netmaskRoutes "\"*\""
par ProactiveSwitch.hostA.ipv4.routingTable forwarding false
par ProactiveSwitch.hostA.ipv4.routingTable multicastForwarding false
par ProactiveSwitch.hostA.ipv4.routingTable useAdminDist false
par ProactiveSwitch.hostA.ipv4.routingTable routingFile "\"\""
par ProactiveSwitch.hostA.ipv4.natTable typename "\"inet.networklayer.ipv4.Ipv4NatTable\""
par ProactiveSwitch.hostA.ipv4.natTable networkProtocolModule "\"^.ip\""
par ProactiveSwitch.hostA.ipv4.natTable config "<config/> at content:1"
par ProactiveSwitch.hostA.ipv4.up typename "\"inet.common.MessageDispatcher\""
par ProactiveSwitch.hostA.ipv4.up displayStringTextFormat "\"processed %p pk (%l)\""
par ProactiveSwitch.hostA.ipv4.up forwardServiceRegistration true
par ProactiveSwitch.hostA.ipv4.up forwardProtocolRegistration true
par ProactiveSwitch.hostA.ipv4.igmp typename "\"inet.networklayer.ipv4.Igmpv2\""
par ProactiveSwitch.hostA.ipv4.igmp interfaceTableModule "\"ProactiveSwitch.hostA.interfaceTable\""
par ProactiveSwitch.hostA.ipv4.igmp routingTableModule "\"ProactiveSwitch.hostA.ipv4.routingTable\""
par ProactiveSwitch.hostA.ipv4.igmp crcMode "\"declared\""
attr enum declared,computed
par ProactiveSwitch.hostA.ipv4.igmp enabled true
par ProactiveSwitch.hostA.ipv4.igmp robustnessVariable 2
par ProactiveSwitch.hostA.ipv4.igmp queryInterval 125s
attr unit s
par ProactiveSwitch.hostA.ipv4.igmp queryResponseInterval 10s
attr unit s
par ProactiveSwitch.hostA.ipv4.igmp groupMembershipInterval 260s
attr unit s
par ProactiveSwitch.hostA.ipv4.igmp otherQuerierPresentInterval 255s
attr unit s
par ProactiveSwitch.hostA.ipv4.igmp startupQueryInterval 31.25s
attr unit s
par ProactiveSwitch.hostA.ipv4.igmp startupQueryCount 2
par ProactiveSwitch.hostA.ipv4.igmp lastMemberQueryInterval 1s
attr unit s
par ProactiveSwitch.hostA.ipv4.igmp lastMemberQueryCount 2
par ProactiveSwitch.hostA.ipv4.igmp unsolicitedReportInterval 10s
attr unit s
par ProactiveSwitch.hostA.ipv4.icmp typename "\"inet.networklayer.ipv4.Icmp\""
par ProactiveSwitch.hostA.ipv4.icmp interfaceTableModule "\"ProactiveSwitch.hostA.interfaceTable\""
par ProactiveSwitch.hostA.ipv4.icmp routingTableModule "\"ProactiveSwitch.hostA.ipv4.routingTable\""
par ProactiveSwitch.hostA.ipv4.icmp crcMode "\"declared\""
attr enum declared,computed
attr mutable ""
par ProactiveSwitch.hostA.ipv4.icmp quoteLength 8B
attr mutable ""
attr unit B
par ProactiveSwitch.hostA.ipv4.mp typename "\"inet.common.MessageDispatcher\""
par ProactiveSwitch.hostA.ipv4.mp displayStringTextFormat "\"processed %p pk (%l)\""
par ProactiveSwitch.hostA.ipv4.mp forwardServiceRegistration true
par ProactiveSwitch.hostA.ipv4.mp forwardProtocolRegistration true
par ProactiveSwitch.hostA.ipv4.ip typename "\"inet.networklayer.ipv4.Ipv4\""
par ProactiveSwitch.hostA.ipv4.ip interfaceTableModule "\"ProactiveSwitch.hostA.interfaceTable\""
par ProactiveSwitch.hostA.ipv4.ip routingTableModule "\"ProactiveSwitch.hostA.ipv4.routingTable\""
par ProactiveSwitch.hostA.ipv4.ip arpModule "\"ProactiveSwitch.hostA.ipv4.arp\""
par ProactiveSwitch.hostA.ipv4.ip icmpModule "\"ProactiveSwitch.hostA.ipv4.icmp\""
par ProactiveSwitch.hostA.ipv4.ip crcMode "\"declared\""
attr enum declared,computed
par ProactiveSwitch.hostA.ipv4.ip timeToLive 32
par ProactiveSwitch.hostA.ipv4.ip multicastTimeToLive 32
par ProactiveSwitch.hostA.ipv4.ip fragmentTimeout 60s
attr unit s
par ProactiveSwitch.hostA.ipv4.ip limitedBroadcast false
par ProactiveSwitch.hostA.ipv4.ip directBroadcastInterfaces "\"\""
scalar ProactiveSwitch.hostA.ipv4.ip packetDropAddressResolutionFailed:count 0
attr interpolationmode none
attr recordingmode count
attr source packetDropReasonIsAddressResolutionFailed(packetDropped)
attr title "packet drop: address resolution failed, count"
scalar ProactiveSwitch.hostA.ipv4.ip packetDropAddressResolutionFailed:sum(packetBytes) 0
attr interpolationmode none
attr recordingmode sum(packetBytes)
attr source packetDropReasonIsAddressResolutionFailed(packetDropped)
attr title "packet drop: address resolution failed, sum(packetBytes)"
scalar ProactiveSwitch.hostA.ipv4.ip packetDropHopLimitReached:count 0
attr interpolationmode none
attr recordingmode count
attr source packetDropReasonIsHopLimitReached(packetDropped)
attr title "packet drop: hop limit reached, count"
scalar ProactiveSwitch.hostA.ipv4.ip packetDropHopLimitReached:sum(packetBytes) 0
attr interpolationmode none
attr recordingmode sum(packetBytes)
attr source packetDropReasonIsHopLimitReached(packetDropped)
attr title "packet drop: hop limit reached, sum(packetBytes)"
scalar ProactiveSwitch.hostA.ipv4.ip packetDropForwardingDisabled:count 0
attr interpolationmode none
attr recordingmode count
attr source packetDropReasonIsForwardingDisabled(packetDropped)
attr title "packet drop: forwarding disabled, count"
scalar ProactiveSwitch.hostA.ipv4.ip packetDropForwardingDisabled:sum(packetBytes) 0
attr interpolationmode none
attr recordingmode sum(packetBytes)
attr source packetDropReasonIsForwardingDisabled(packetDropped)
attr title "packet drop: forwarding disabled, sum(packetBytes)"
scalar ProactiveSwitch.hostA.ipv4.ip packetDropNoInterfaceFound:count 0
attr interpolationmode none
attr recordingmode count
attr source packetDropReasonIsNoInterfaceFound(packetDropped)
attr title "packet drop: no interface found, count"
scalar ProactiveSwitch.hostA.ipv4.ip packetDropNoInterfaceFound:sum(packetBytes) 0
attr interpolationmode none
attr recordingmode sum(packetBytes)
attr source packetDropReasonIsNoInterfaceFound(packetDropped)
attr title "packet drop: no interface found, sum(packetBytes)"
scalar ProactiveSwitch.hostA.ipv4.ip packetDropNoRouteFound:count 0
attr interpolationmode none
attr recordingmode count
attr source packetDropReasonIsNoRouteFound(packetDropped)
attr title "packet drop: no route found, count"
scalar ProactiveSwitch.hostA.ipv4.ip packetDropUndefined:count 0
attr interpolationmode none
attr recordingmode count
attr source packetDropReasonIsUndefined(packetDropped)
attr title "packet drop: undefined, count"
scalar ProactiveSwitch.hostA.ipv4.ip packetDropUndefined:sum(packetBytes) 0
attr interpolationmode none
attr recordingmode sum(packetBytes)
attr source packetDropReasonIsUndefined(packetDropped)
attr title "packet drop: undefined, sum(packetBytes)"
par ProactiveSwitch.hostA.ipv4.arp typename "\"inet.networklayer.arp.ipv4.Arp\""
par ProactiveSwitch.hostA.ipv4.arp interfaceTableModule "\"ProactiveSwitch.hostA.interfaceTable\""
par ProactiveSwitch.hostA.ipv4.arp routingTableModule "\"ProactiveSwitch.hostA.ipv4.routingTable\""
par ProactiveSwitch.hostA.ipv4.arp retryTimeout 1s
attr unit s
par ProactiveSwitch.hostA.ipv4.arp retryCount 3
par ProactiveSwitch.hostA.ipv4.arp cacheTimeout 120s
attr unit s
par ProactiveSwitch.hostA.ipv4.arp proxyArpInterfaces "\"\""
scalar ProactiveSwitch.hostA.ipv4.arp arpReplySent:count 0
attr recordingmode count
attr source arpReplySent
attr title "ARP replies sent, count"
scalar ProactiveSwitch.hostA.ipv4.arp arpReplySent:sum(packetBytes) 0
attr recordingmode sum(packetBytes)
attr source arpReplySent
attr title "ARP replies sent, sum(packetBytes)"
scalar ProactiveSwitch.hostA.ipv4.arp arpRequestSent:count 1
attr recordingmode count
attr source arpRequestSent
attr title "ARP request sent, count"
scalar ProactiveSwitch.hostA.ipv4.arp arpRequestSent:sum(packetBytes) 28
attr recordingmode sum(packetBytes)
attr source arpRequestSent
attr title "ARP request sent, sum(packetBytes)"
scalar ProactiveSwitch.hostA.ipv4.arp arpResolutionFailed:count 0
attr recordingmode count
attr title "ARP failed resolutions, count"
scalar ProactiveSwitch.hostA.ipv4.arp arpResolutionCompleted:count 1
attr recordingmode count
attr title "ARP completed resolutions, count"
scalar ProactiveSwitch.hostA.ipv4.arp arpResolutionInitiated:count 1
attr recordingmode count
attr title "ARP initiated resolutions, count"
par ProactiveSwitch.hostA.ipv4.lp typename "\"inet.common.MessageDispatcher\""
par ProactiveSwitch.hostA.ipv4.lp displayStringTextFormat "\"processed %p pk (%l)\""
par ProactiveSwitch.hostA.ipv4.lp forwardServiceRegistration true
par ProactiveSwitch.hostA.ipv4.lp forwardProtocolRegistration true
par ProactiveSwitch.hostA.ipv4 typename "\"inet.networklayer.ipv4.Ipv4NetworkLayer\""
par ProactiveSwitch.hostA.ipv4 forwarding false
par ProactiveSwitch.hostA.ipv4 multicastForwarding false
par ProactiveSwitch.hostA.ipv4 interfaceTableModule "\"ProactiveSwitch.hostA.interfaceTable\""
par ProactiveSwitch.hostA.ipv4 displayStringTextFormat "\"%i\""
par ProactiveSwitch.hostA.nl typename "\"inet.common.MessageDispatcher\""
par ProactiveSwitch.hostA.nl displayStringTextFormat "\"processed %p pk (%l)\""
par ProactiveSwitch.hostA.nl forwardServiceRegistration true
par ProactiveSwitch.hostA.nl forwardProtocolRegistration true
par ProactiveSwitch.hostA.udp typename "\"inet.transportlayer.udp.Udp\""
par ProactiveSwitch.hostA.udp interfaceTableModule "\"ProactiveSwitch.hostA.interfaceTable\""
par ProactiveSwitch.hostA.udp icmpModule "\"^.ipv4.icmp\""
par ProactiveSwitch.hostA.udp icmpv6Module "\"^.ipv6.icmpv6\""
par ProactiveSwitch.hostA.udp crcMode "\"declared\""
attr enum disabled,declared,computed
par ProactiveSwitch.hostA.udp defaultMulticastLoop true
scalar ProactiveSwitch.hostA.udp packetReceived:count 0
attr interpolationmode none
attr recordingmode count
attr source packetReceived
attr title "packets received, count"
scalar ProactiveSwitch.hostA.udp packetReceived:sum(packetBytes) 0
attr interpolationmode none
attr recordingmode sum(packetBytes)
attr source packetReceived
attr title "packets received, sum(packetBytes)"
scalar ProactiveSwitch.hostA.udp packetSent:count 51
attr interpolationmode none
attr recordingmode count
attr source packetSent
attr title "packets sent, count"
scalar ProactiveSwitch.hostA.udp packetSent:sum(packetBytes) 26520
attr interpolationmode none
attr recordingmode sum(packetBytes)
attr source packetSent
attr title "packets sent, sum(packetBytes)"
scalar ProactiveSwitch.hostA.udp passedUpPk:count 0
attr interpolationmode none
attr recordingmode count
attr source packetSentToUpper
attr title "packets passed up, count"
scalar ProactiveSwitch.hostA.udp droppedPkWrongPort:count 0
attr interpolationmode none
attr recordingmode count
attr source packetDropReasonIsNoPortFound(packetDropped)
attr title "packets dropped (wrong port), count"
scalar ProactiveSwitch.hostA.udp droppedPkBadChecksum:count 0
attr interpolationmode none
attr recordingmode count
attr source packetDropReasonIsIncorrectlyReceived(packetDropped)
attr title "packets dropped (checksum error), count"
par ProactiveSwitch.hostA.tcp typename "\"inet.transportlayer.tcp.Tcp\""
par ProactiveSwitch.hostA.tcp crcMode "\"declared\""
attr enum declared,computed
par ProactiveSwitch.hostA.tcp advertisedWindow 7504
par ProactiveSwitch.hostA.tcp delayedAcksEnabled false
par ProactiveSwitch.hostA.tcp nagleEnabled true
par ProactiveSwitch.hostA.tcp limitedTransmitEnabled false
par ProactiveSwitch.hostA.tcp increasedIWEnabled false
par ProactiveSwitch.hostA.tcp sackSupport false
par ProactiveSwitch.hostA.tcp windowScalingSupport false
par ProactiveSwitch.hostA.tcp windowScalingFactor -1
par ProactiveSwitch.hostA.tcp timestampSupport false
par ProactiveSwitch.hostA.tcp mss 536
par ProactiveSwitch.hostA.tcp msl 120s
attr unit s
par ProactiveSwitch.hostA.tcp tcpAlgorithmClass "\"TcpReno\""
par ProactiveSwitch.hostA.tcp useDataNotification false
par ProactiveSwitch.hostA.tcp dupthresh 3
par ProactiveSwitch.hostA.tcp initialSsthresh 4294967295
par ProactiveSwitch.hostA.tcp stopOperationExtraTime 0s
attr unit s
par ProactiveSwitch.hostA.tcp stopOperationTimeout 2s
attr unit s
par ProactiveSwitch.hostA.tcp ecnWillingness false
par ProactiveSwitch.hostA.tcp dctcpGamma 0.0625
par ProactiveSwitch.hostA.tn typename "\"inet.common.MessageDispatcher\""
par ProactiveSwitch.hostA.tn displayStringTextFormat "\"processed %p pk (%l)\""
par ProactiveSwitch.hostA.tn forwardServiceRegistration true
par ProactiveSwitch.hostA.tn forwardProtocolRegistration true
par ProactiveSwitch.hostA.app[0] typename "\"inet.applications.udpapp.UdpBasicApp\""
par ProactiveSwitch.hostA.app[0] interfaceTableModule "\"ProactiveSwitch.hostA.interfaceTable\""
par ProactiveSwitch.hostA.app[0] clockModule "\"\""
par ProactiveSwitch.hostA.app[0] localPort -1
par ProactiveSwitch.hostA.app[0] destAddresses "\"hostB\""
par ProactiveSwitch.hostA.app[0] localAddress "\"\""
par ProactiveSwitch.hostA.app[0] packetName "\"UdpBasicAppData\""
par ProactiveSwitch.hostA.app[0] destPort 5000
par ProactiveSwitch.hostA.app[0] messageLength 512B
attr unit B
par ProactiveSwitch.hostA.app[0] startTime 10s
attr unit s
par ProactiveSwitch.hostA.app[0] stopTime -1s
attr unit s
par ProactiveSwitch.hostA.app[0] sendInterval 1s
attr unit s
par ProactiveSwitch.hostA.app[0] timeToLive -1
par ProactiveSwitch.hostA.app[0] dontFragment false
par ProactiveSwitch.hostA.app[0] dscp -1
par ProactiveSwitch.hostA.app[0] tos -1
par ProactiveSwitch.hostA.app[0] multicastInterface "\"\""
par ProactiveSwitch.hostA.app[0] receiveBroadcast false
par ProactiveSwitch.hostA.app[0] joinLocalMulticastGroups false
par ProactiveSwitch.hostA.app[0] stopOperationExtraTime -1s
attr unit s
par ProactiveSwitch.hostA.app[0] stopOperationTimeout 2s
attr unit s
scalar ProactiveSwitch.hostA.app[0] "packets sent" 51
scalar ProactiveSwitch.hostA.app[0] "packets received" 0
scalar ProactiveSwitch.hostA.app[0] packetReceived:count 0
attr interpolationmode none
attr recordingmode count
attr source packetReceived
attr title "packets received, count"
statistic ProactiveSwitch.hostA.app[0] rcvdPkLifetime:stats
field count 0
field mean -nan(ind)
field stddev nan
field min nan
field max nan
field sum 0
field sqrsum 0
attr interpolationmode none
attr recordingmode stats
attr source dataAge(packetReceived)
attr title "received packet lifetime"
attr unit s
scalar ProactiveSwitch.hostA.app[0] packetSent:count 51
attr interpolationmode none
attr recordingmode count
attr source packetSent
attr title "packets sent, count"
par ProactiveSwitch.hostA.at typename "\"inet.common.MessageDispatcher\""
par ProactiveSwitch.hostA.at displayStringTextFormat "\"processed %p pk (%l)\""
par ProactiveSwitch.hostA.at forwardServiceRegistration true
par ProactiveSwitch.hostA.at forwardProtocolRegistration true
par ProactiveSwitch.hostA typename "\"inet.node.inet.StandardHost\""
par ProactiveSwitch.hostA hasStatus false
par ProactiveSwitch.hostA osgModel "\"\""
par ProactiveSwitch.hostA osgModelColor "\"\""
par ProactiveSwitch.hostA canvasImage "\"\""
par ProactiveSwitch.hostA canvasImageColor "\"\""
par ProactiveSwitch.hostA recordPcap false
par ProactiveSwitch.hostA numPcapRecorders 0
par ProactiveSwitch.hostA numLoInterfaces 1
par ProactiveSwitch.hostA numWlanInterfaces 0
par ProactiveSwitch.hostA numEthInterfaces 0
par ProactiveSwitch.hostA numPppInterfaces 0
par ProactiveSwitch.hostA numTunInterfaces 0
par ProactiveSwitch.hostA numVirtInterfaces 0
par ProactiveSwitch.hostA fcsMode "\"declared\""
attr enum declared,computed
par ProactiveSwitch.hostA hasIpv4 true
par ProactiveSwitch.hostA hasIpv6 false
par ProactiveSwitch.hostA hasGn false
par ProactiveSwitch.hostA forwarding false
par ProactiveSwitch.hostA multicastForwarding false
par ProactiveSwitch.hostA hasUdp true
par ProactiveSwitch.hostA hasTcp true
par ProactiveSwitch.hostA hasSctp false
par ProactiveSwitch.hostA numApps 1
par ProactiveSwitch.r1.ethg$i[0].channel typename "\"ned.IdealChannel\""
par ProactiveSwitch.r1.eth[0].phys$o.channel typename "\"ned.IdealChannel\""
par ProactiveSwitch.r1.ethg$i[1].channel typename "\"ned.IdealChannel\""
par ProactiveSwitch.r1.eth[1].phys$o.channel typename "\"ned.IdealChannel\""
par ProactiveSwitch.r1.ethg$i[2].channel typename "\"ned.IdealChannel\""
par ProactiveSwitch.r1.eth[2].phys$o.channel typename "\"ned.IdealChannel\""
par ProactiveSwitch.r1.interfaceTable typename "\"inet.networklayer.common.InterfaceTable\""
par ProactiveSwitch.r1.interfaceTable displayAddresses false
par ProactiveSwitch.r1.cb typename "\"inet.common.MessageDispatcher\""
par ProactiveSwitch.r1.cb displayStringTextFormat "\"processed %p pk (%l)\""
par ProactiveSwitch.r1.cb forwardServiceRegistration true
par ProactiveSwitch.r1.cb forwardProtocolRegistration true
par ProactiveSwitch.r1.bl typename "\"inet.common.MessageDispatcher\""
par ProactiveSwitch.r1.bl displayStringTextFormat "\"processed %p pk (%l)\""
par ProactiveSwitch.r1.bl forwardServiceRegistration true
par ProactiveSwitch.r1.bl forwardProtocolRegistration true
par ProactiveSwitch.r1.ethernet typename "\"inet.linklayer.ethernet.basic.EthernetEncapsulation\""
par ProactiveSwitch.r1.ethernet registerProtocol true
par ProactiveSwitch.r1.ethernet interfaceTableModule "\"ProactiveSwitch.r1.interfaceTable\""
par ProactiveSwitch.r1.ethernet fcsMode "\"declared\""
attr enum declared,computed
par ProactiveSwitch.r1.ethernet stopOperationExtraTime -1s
attr unit s
par ProactiveSwitch.r1.ethernet stopOperationTimeout 2s
attr unit s
scalar ProactiveSwitch.r1.ethernet decapPk:count 101
attr interpolationmode none
attr recordingmode count
attr source decapPk
attr title "packets decapsulated, count"
scalar ProactiveSwitch.r1.ethernet decapPk:sum(packetBytes) 31082
attr interpolationmode none
attr recordingmode sum(packetBytes)
attr source decapPk
attr title "packets decapsulated, sum(packetBytes)"
scalar ProactiveSwitch.r1.ethernet encapPk:count 110
attr interpolationmode none
attr recordingmode count
attr source encapPk
attr title "packets encapsulated, count"
scalar ProactiveSwitch.r1.ethernet encapPk:sum(packetBytes) 31776
attr interpolationmode none
attr recordingmode sum(packetBytes)
attr source encapPk
attr title "packets encapsulated, sum(packetBytes)"
scalar ProactiveSwitch.r1.ethernet pauseSent:count 0
attr recordingmode count
attr title "pause sent, count"
scalar ProactiveSwitch.r1.ethernet pauseSent:sum 0
attr recordingmode sum
attr title "pause sent, sum"
par ProactiveSwitch.r1.li typename "\"inet.common.MessageDispatcher\""
par ProactiveSwitch.r1.li displayStringTextFormat "\"processed %p pk (%l)\""
par ProactiveSwitch.r1.li forwardServiceRegistration true
par ProactiveSwitch.r1.li forwardProtocolRegistration true
par ProactiveSwitch.r1.lo[0].upperLayerIn.channel typename "\"ned.IdealChannel\""
par ProactiveSwitch.r1.lo[0].lo.upperLayerOut.channel typename "\"ned.IdealChannel\""
par ProactiveSwitch.r1.lo[0].lo typename "\"inet.linklayer.loopback.Loopback\""
par ProactiveSwitch.r1.lo[0].lo interfaceTableModule "\"ProactiveSwitch.r1.interfaceTable\""
par ProactiveSwitch.r1.lo[0].lo mtu 4470B
attr unit B
scalar ProactiveSwitch.r1.lo[0].lo rcvdPkFromHl:count 0
attr interpolationmode none
attr recordingmode count
attr source packetReceivedFromUpper
attr title "packets received from higher layer, count"
scalar ProactiveSwitch.r1.lo[0].lo rcvdPkFromHl:sum(packetBytes) 0
attr interpolationmode none
attr recordingmode sum(packetBytes)
attr source packetReceivedFromUpper
attr title "packets received from higher layer, sum(packetBytes)"
scalar ProactiveSwitch.r1.lo[0].lo passedUpPk:count 0
attr interpolationmode none
attr recordingmode count
attr source packetSentToUpper
attr title "packets passed to higher layer, count"
scalar ProactiveSwitch.r1.lo[0].lo passedUpPk:sum(packetBytes) 0
attr interpolationmode none
attr recordingmode sum(packetBytes)
attr source packetSentToUpper
attr title "packets passed to higher layer, sum(packetBytes)"
par ProactiveSwitch.r1.lo[0] typename "\"inet.linklayer.loopback.LoopbackInterface\""
par ProactiveSwitch.r1.lo[0] displayStringTextFormat "\"%a (%i)\\n%m\""
par ProactiveSwitch.r1.lo[0] recordPcap false
par ProactiveSwitch.r1.lo[0] numPcapRecorders 0
par ProactiveSwitch.r1.lo[0] interfaceTableModule "\"ProactiveSwitch.r1.interfaceTable\""
scalar ProactiveSwitch.r1.lo[0] packetDropInterfaceDown:count 0
attr interpolationmode none
attr recordingmode count
attr source packetDropReasonIsInterfaceDown(packetDropped)
attr title "packet drops: interface down, count"
scalar ProactiveSwitch.r1.lo[0] packetDropInterfaceDown:sum(packetBytes) 0
attr interpolationmode none
attr recordingmode sum(packetBytes)
attr source packetDropReasonIsInterfaceDown(packetDropped)
attr title "packet drops: interface down, sum(packetBytes)"
scalar ProactiveSwitch.r1.lo[0] packetDropNoCarrier:count 0
attr interpolationmode none
attr recordingmode count
attr source packetDropReasonIsNoCarrier(packetDropped)
attr title "packet drops: no carrier, count"
scalar ProactiveSwitch.r1.lo[0] packetDropNoCarrier:sum(packetBytes) 0
attr interpolationmode none
attr recordingmode sum(packetBytes)
attr source packetDropReasonIsNoCarrier(packetDropped)
attr title "packet drops: no carrier, sum(packetBytes)"
par ProactiveSwitch.r1.eth[0].mac.phys$o.channel typename "\"ned.IdealChannel\""
par ProactiveSwitch.r1.eth[0].phys$i.channel typename "\"ned.IdealChannel\""
par ProactiveSwitch.r1.eth[0].upperLayerIn.channel typename "\"ned.IdealChannel\""
par ProactiveSwitch.r1.eth[0].mac.upperLayerOut.channel typename "\"ned.IdealChannel\""
par ProactiveSwitch.r1.eth[0].queue typename "\"inet.linklayer.ethernet.common.EthernetQueue\""
par ProactiveSwitch.r1.eth[0].queue displayStringTextFormat "\"contains %p pk (%l) pushed %u\\npulled %o removed %r dropped %d\""
par ProactiveSwitch.r1.eth[0].queue packetCapacity 1000
par ProactiveSwitch.r1.eth[0].queue dataCapacity -1b
attr unit b
par ProactiveSwitch.r1.eth[0].queue dropperClass "\"inet::queueing::PacketAtCollectionEndDropper\""
par ProactiveSwitch.r1.eth[0].queue comparatorClass "\"inet::EthernetFrameTypeComparator\""
par ProactiveSwitch.r1.eth[0].queue bufferModule "\"\""
scalar ProactiveSwitch.r1.eth[0].queue queueLength:last 0
attr autoWarmupFilter false
attr interpolationmode sample-hold
attr recordingmode last
attr source "warmup(atomic(constant0(packetPushEnded) + count(packetPushStarted) - count(packetPulled) - count(packetRemoved) - count(packetDropped)))"
attr title "queue length, last"
attr unit pk
scalar ProactiveSwitch.r1.eth[0].queue queueLength:max 0
attr autoWarmupFilter false
attr interpolationmode sample-hold
attr recordingmode max
attr source "warmup(atomic(constant0(packetPushEnded) + count(packetPushStarted) - count(packetPulled) - count(packetRemoved) - count(packetDropped)))"
attr title "queue length, max"
attr unit pk
scalar ProactiveSwitch.r1.eth[0].queue queueLength:timeavg 0
attr autoWarmupFilter false
attr interpolationmode sample-hold
attr recordingmode timeavg
attr source "warmup(atomic(constant0(packetPushEnded) + count(packetPushStarted) - count(packetPulled) - count(packetRemoved) - count(packetDropped)))"
attr title "queue length, timeavg"
attr unit pk
scalar ProactiveSwitch.r1.eth[0].queue queueBitLength:last 0
attr autoWarmupFilter false
attr interpolationmode sample-hold
attr recordingmode last
attr source "warmup(atomic(constant0(packetPushEnded) + sum(packetLength(packetPushStarted)) - sum(packetLength(packetPulled)) - sum(packetLength(packetRemoved)) - sum(packetLength(packetDropped))))"
attr title "queue bit length, last"
attr unit b
scalar ProactiveSwitch.r1.eth[0].queue queueBitLength:max 0
attr autoWarmupFilter false
attr interpolationmode sample-hold
attr recordingmode max
attr source "warmup(atomic(constant0(packetPushEnded) + sum(packetLength(packetPushStarted)) - sum(packetLength(packetPulled)) - sum(packetLength(packetRemoved)) - sum(packetLength(packetDropped))))"
attr title "queue bit length, max"
attr unit b
scalar ProactiveSwitch.r1.eth[0].queue queueBitLength:timeavg 0
attr autoWarmupFilter false
attr interpolationmode sample-hold
attr recordingmode timeavg
attr source "warmup(atomic(constant0(packetPushEnded) + sum(packetLength(packetPushStarted)) - sum(packetLength(packetPulled)) - sum(packetLength(packetRemoved)) - sum(packetLength(packetDropped))))"
attr title "queue bit length, timeavg"
attr unit b
statistic ProactiveSwitch.r1.eth[0].queue queueingTime:histogram
field count 7
field mean 0
field stddev 0
field min 0
field max 0
field sum 0
field sqrsum 0
attr interpolationmode none
attr recordingmode histogram
attr source queueingTime(packetPulled)
attr title "queueing times"
attr unit s
bin	-inf	0
bin	-0.5	0
bin	-0.48	0
bin	-0.46	0
bin	-0.44	0
bin	-0.42	0
bin	-0.4	0
bin	-0.38	0
bin	-0.36	0
bin	-0.34	0
bin	-0.32	0
bin	-0.3	0
bin	-0.28	0
bin	-0.26	0
bin	-0.24	0
bin	-0.22	0
bin	-0.2	0
bin	-0.18	0
bin	-0.16	0
bin	-0.14	0
bin	-0.12	0
bin	-0.1	0
bin	-0.08	0
bin	-0.06	0
bin	-0.04	0
bin	-0.02	0
bin	0	7
bin	0.02	0
bin	0.04	0
bin	0.06	0
bin	0.08	0
bin	0.1	0
bin	0.12	0
bin	0.14	0
bin	0.16	0
bin	0.18	0
bin	0.2	0
bin	0.22	0
bin	0.24	0
bin	0.26	0
bin	0.28	0
bin	0.3	0
bin	0.32	0
bin	0.34	0
bin	0.36	0
bin	0.38	0
bin	0.4	0
bin	0.42	0
bin	0.44	0
bin	0.46	0
bin	0.48	0
bin	0.5	0
scalar ProactiveSwitch.r1.eth[0].queue outgoingPackets:count 7
attr recordingmode count
attr source packetPulled
attr title "outgoing packets, count"
attr unit pk
scalar ProactiveSwitch.r1.eth[0].queue outgoingPacketLengths:sum 4304
attr interpolationmode none
attr recordingmode sum
attr source packetLength(packetPulled)
attr title "outgoing packet lengths, sum"
attr unit b
statistic ProactiveSwitch.r1.eth[0].queue outgoingPacketLengths:histogram
field count 7
field mean 614.85714285714
field stddev 108.85376822666
field min 368
field max 656
field sum 4304
field sqrsum 2717440
attr interpolationmode none
attr recordingmode histogram
attr source packetLength(packetPulled)
attr title "outgoing packet lengths"
attr unit b
bin	-inf	0
bin	295	0
bin	300	0
bin	305	0
bin	310	0
bin	315	0
bin	320	0
bin	325	0
bin	330	0
bin	335	0
bin	340	0
bin	345	0
bin	350	0
bin	355	0
bin	360	0
bin	365	1
bin	370	0
bin	375	0
bin	380	0
bin	385	0
bin	390	0
bin	395	0
bin	400	0
bin	405	0
bin	410	0
bin	415	0
bin	420	0
bin	425	0
bin	430	0
bin	435	0
bin	440	0
bin	445	0
bin	450	0
bin	455	0
bin	460	0
bin	465	0
bin	470	0
bin	475	0
bin	480	0
bin	485	0
bin	490	0
bin	495	0
bin	500	0
bin	505	0
bin	510	0
bin	515	0
bin	520	0
bin	525	0
bin	530	0
bin	535	0
bin	540	0
bin	545	0
bin	550	0
bin	555	0
bin	560	0
bin	565	0
bin	570	0
bin	575	0
bin	580	0
bin	585	0
bin	590	0
bin	595	0
bin	600	0
bin	605	0
bin	610	0
bin	615	0
bin	620	0
bin	625	0
bin	630	0
bin	635	0
bin	640	0
bin	645	0
bin	650	0
bin	655	6
bin	660	0
bin	665	0
bin	670	0
bin	675	0
bin	680	0
bin	685	0
bin	690	0
bin	695	0
bin	700	0
bin	705	0
bin	710	0
bin	715	0
bin	720	0
bin	725	0
bin	730	0
statistic ProactiveSwitch.r1.eth[0].queue flowQueueingTime:histogram
field count 0
field mean -nan(ind)
field stddev nan
field min nan
field max nan
field sum 0
field sqrsum 0
attr interpolationmode none
attr recordingmode histogram
attr source queueingTime(demuxFlow(packetPulled))
attr title "flow queueing times"
attr unit s
bin	-inf	0
bin	0	0
bin	1	0
scalar ProactiveSwitch.r1.eth[0].queue incomingPackets:count 7
attr recordingmode count
attr source packetPushStarted
attr title "incoming packets, count"
attr unit pk
scalar ProactiveSwitch.r1.eth[0].queue incomingPacketLengths:sum 4304
attr interpolationmode none
attr recordingmode sum
attr source packetLength(packetPushStarted)
attr title "incoming packet lengths, sum"
attr unit b
statistic ProactiveSwitch.r1.eth[0].queue incomingPacketLengths:histogram
field count 7
field mean 614.85714285714
field stddev 108.85376822666
field min 368
field max 656
field sum 4304
field sqrsum 2717440
attr interpolationmode none
attr recordingmode histogram
attr source packetLength(packetPushStarted)
attr title "incoming packet lengths"
attr unit b
bin	-inf	0
bin	295	0
bin	300	0
bin	305	0
bin	310	0
bin	315	0
bin	320	0
bin	325	0
bin	330	0
bin	335	0
bin	340	0
bin	345	0
bin	350	0
bin	355	0
bin	360	0
bin	365	1
bin	370	0
bin	375	0
bin	380	0
bin	385	0
bin	390	0
bin	395	0
bin	400	0
bin	405	0
bin	410	0
bin	415	0
bin	420	0
bin	425	0
bin	430	0
bin	435	0
bin	440	0
bin	445	0
bin	450	0
bin	455	0
bin	460	0
bin	465	0
bin	470	0
bin	475	0
bin	480	0
bin	485	0
bin	490	0
bin	495	0
bin	500	0
bin	505	0
bin	510	0
bin	515	0
bin	520	0
bin	525	0
bin	530	0
bin	535	0
bin	540	0
bin	545	0
bin	550	0
bin	555	0
bin	560	0
bin	565	0
bin	570	0
bin	575	0
bin	580	0
bin	585	0
bin	590	0
bin	595	0
bin	600	0
bin	605	0
bin	610	0
bin	615	0
bin	620	0
bin	625	0
bin	630	0
bin	635	0
bin	640	0
bin	645	0
bin	650	0
bin	655	6
bin	660	0
bin	665	0
bin	670	0
bin	675	0
bin	680	0
bin	685	0
bin	690	0
bin	695	0
bin	700	0
bin	705	0
bin	710	0
bin	715	0
bin	720	0
bin	725	0
bin	730	0
scalar ProactiveSwitch.r1.eth[0].queue droppedPacketsQueueOverflow:count 0
attr interpolationmode none
attr recordingmode count
attr source packetDropReasonIsQueueOverflow(packetDropped)
attr title "dropped packets: queue overflow, count"
attr unit pk
scalar ProactiveSwitch.r1.eth[0].queue droppedPacketLengthsQueueOverflow:sum 0
attr interpolationmode none
attr recordingmode sum
attr source packetLength(packetDropReasonIsQueueOverflow(packetDropped))
attr title "dropped packet lengths: queue overflow, sum"
attr unit b
par ProactiveSwitch.r1.eth[0].mac typename "\"inet.linklayer.ethernet.basic.EthernetMac\""
par ProactiveSwitch.r1.eth[0].mac interfaceTableModule "\"ProactiveSwitch.r1.interfaceTable\""
par ProactiveSwitch.r1.eth[0].mac displayStringTextFormat "\"rate: %b\\nsent: %s, rcvd: %r\\nqueue: %q, drop: %d\""
par ProactiveSwitch.r1.eth[0].mac sendRawBytes false
par ProactiveSwitch.r1.eth[0].mac promiscuous false
par ProactiveSwitch.r1.eth[0].mac duplexMode true
par ProactiveSwitch.r1.eth[0].mac mtu 1500B
attr unit B
par ProactiveSwitch.r1.eth[0].mac fcsMode "\"declared\""
attr enum declared,computed
par ProactiveSwitch.r1.eth[0].mac stopOperationExtraTime -1s
attr unit s
par ProactiveSwitch.r1.eth[0].mac stopOperationTimeout 2s
attr unit s
scalar ProactiveSwitch.r1.eth[0].mac "simulated time" 60
scalar ProactiveSwitch.r1.eth[0].mac full-duplex 1
scalar ProactiveSwitch.r1.eth[0].mac "frames/sec sent" 0.11666666666667
scalar ProactiveSwitch.r1.eth[0].mac "frames/sec rcvd" 0.85
scalar ProactiveSwitch.r1.eth[0].mac "bits/sec sent" 74.133333333333
scalar ProactiveSwitch.r1.eth[0].mac "bits/sec rcvd" 3728.5333333333
scalar ProactiveSwitch.r1.eth[0].mac "rx channel idle (%)" 99.996217066667
scalar ProactiveSwitch.r1.eth[0].mac "rx channel utilization (%)" 0.0037829333333333
scalar ProactiveSwitch.r1.eth[0].mac txPk:count 7
attr interpolationmode none
attr recordingmode count
attr source packetSentToLower
attr title "packets transmitted, count"
scalar ProactiveSwitch.r1.eth[0].mac txPk:sum(packetBytes) 556
attr interpolationmode none
attr recordingmode sum(packetBytes)
attr source packetSentToLower
attr title "packets transmitted, sum(packetBytes)"
scalar ProactiveSwitch.r1.eth[0].mac packetReceivedFromUpper:count 7
attr interpolationmode none
attr recordingmode count
attr source packetReceivedFromUpper
attr title "packet bytes from higher layer, count"
scalar ProactiveSwitch.r1.eth[0].mac packetReceivedFromUpper:sum(packetBytes) 538
attr interpolationmode none
attr recordingmode sum(packetBytes)
attr source packetReceivedFromUpper
attr title "packet bytes from higher layer, sum(packetBytes)"
scalar ProactiveSwitch.r1.eth[0].mac passedUpPk:count 51
attr interpolationmode none
attr recordingmode count
attr source packetSentToUpper
attr title "packets passed to higher layer, count"
scalar ProactiveSwitch.r1.eth[0].mac passedUpPk:sum(packetBytes) 27964
attr interpolationmode none
attr recordingmode sum(packetBytes)
attr source packetSentToUpper
attr title "packets passed to higher layer, sum(packetBytes)"
scalar ProactiveSwitch.r1.eth[0].mac packetDropIncorrectlyReceived:count 0
attr interpolationmode none
attr recordingmode count
attr source packetDropReasonIsIncorrectlyReceived(packetDropped)
attr title "packet drop: incorrectly received, count"
scalar ProactiveSwitch.r1.eth[0].mac packetDropIncorrectlyReceived:sum(packetBytes) 0
attr interpolationmode none
attr recordingmode sum(packetBytes)
attr source packetDropReasonIsIncorrectlyReceived(packetDropped)
attr title "packet drop: incorrectly received, sum(packetBytes)"
scalar ProactiveSwitch.r1.eth[0].mac packetDropInterfaceDown:count 0
attr interpolationmode none
attr recordingmode count
attr source packetDropReasonIsInterfaceDown(packetDropped)
attr title "packet drop: interface down, count"
scalar ProactiveSwitch.r1.eth[0].mac packetDropInterfaceDown:sum(packetBytes) 0
attr interpolationmode none
attr recordingmode sum(packetBytes)
attr source packetDropReasonIsInterfaceDown(packetDropped)
attr title "packet drop: interface down, sum(packetBytes)"
scalar ProactiveSwitch.r1.eth[0].mac packetDropNotAddressedToUs:count 0
attr interpolationmode none
attr recordingmode count
attr source packetDropReasonIsNotAddressedToUs(packetDropped)
attr title "packet drop: not addressed to us, count"
scalar ProactiveSwitch.r1.eth[0].mac packetDropNotAddressedToUs:sum(packetBytes) 0
attr interpolationmode none
attr recordingmode sum(packetBytes)
attr source packetDropReasonIsNotAddressedToUs(packetDropped)
attr title "packet drop: not addressed to us, sum(packetBytes)"
scalar ProactiveSwitch.r1.eth[0].mac rxPausePkUnits:count 0
attr interpolationmode none
attr recordingmode count
attr title "pause units received, count"
scalar ProactiveSwitch.r1.eth[0].mac rxPausePkUnits:sum 0
attr interpolationmode none
attr recordingmode sum
attr title "pause units received, sum"
scalar ProactiveSwitch.r1.eth[0].mac txPausePkUnits:count 0
attr interpolationmode none
attr recordingmode count
attr title "pause units sent, count"
scalar ProactiveSwitch.r1.eth[0].mac txPausePkUnits:sum 0
attr interpolationmode none
attr recordingmode sum
attr title "pause units sent, sum"
scalar ProactiveSwitch.r1.eth[0].mac rxPkOk:count 51
attr interpolationmode none
attr recordingmode count
attr source rxPkOk
attr title "packets received OK, count"
scalar ProactiveSwitch.r1.eth[0].mac rxPkOk:sum(packetBytes) 27964
attr interpolationmode none
attr recordingmode sum(packetBytes)
attr source rxPkOk
attr title "packets received OK, sum(packetBytes)"
par ProactiveSwitch.r1.eth[0] typename "\"inet.linklayer.ethernet.EthernetInterface\""
par ProactiveSwitch.r1.eth[0] displayStringTextFormat "\"%a (%i)\\n%m\""
par ProactiveSwitch.r1.eth[0] recordPcap false
par ProactiveSwitch.r1.eth[0] numPcapRecorders 0
par ProactiveSwitch.r1.eth[0] interfaceTableModule "\"ProactiveSwitch.r1.interfaceTable\""
par ProactiveSwitch.r1.eth[0] protocol "\"ethernetmac\""
par ProactiveSwitch.r1.eth[0] address "\"0A-AA-00-00-00-02\""
attr mutable ""
par ProactiveSwitch.r1.eth[0] duplexMode true
par ProactiveSwitch.r1.eth[0] csmacdSupport false
par ProactiveSwitch.r1.eth[0] bitrate 0bps
attr unit bps
par ProactiveSwitch.r1.eth[0] fcsMode "\"declared\""
attr enum declared,computed
scalar ProactiveSwitch.r1.eth[0] packetDropInterfaceDown:count 0
attr interpolationmode none
attr recordingmode count
attr source packetDropReasonIsInterfaceDown(packetDropped)
attr title "packet drops: interface down, count"
scalar ProactiveSwitch.r1.eth[0] packetDropInterfaceDown:sum(packetBytes) 0
attr interpolationmode none
attr recordingmode sum(packetBytes)
attr source packetDropReasonIsInterfaceDown(packetDropped)
attr title "packet drops: interface down, sum(packetBytes)"
scalar ProactiveSwitch.r1.eth[0] packetDropNoCarrier:count 0
attr interpolationmode none
attr recordingmode count
attr source packetDropReasonIsNoCarrier(packetDropped)
attr title "packet drops: no carrier, count"
scalar ProactiveSwitch.r1.eth[0] packetDropNoCarrier:sum(packetBytes) 0
attr interpolationmode none
attr recordingmode sum(packetBytes)
attr source packetDropReasonIsNoCarrier(packetDropped)
attr title "packet drops: no carrier, sum(packetBytes)"
par ProactiveSwitch.r1.eth[1].mac.phys$o.channel typename "\"ned.IdealChannel\""
par ProactiveSwitch.r1.eth[1].phys$i.channel typename "\"ned.IdealChannel\""
par ProactiveSwitch.r1.eth[1].upperLayerIn.channel typename "\"ned.IdealChannel\""
par ProactiveSwitch.r1.eth[1].mac.upperLayerOut.channel typename "\"ned.IdealChannel\""
par ProactiveSwitch.r1.eth[1].queue typename "\"inet.linklayer.ethernet.common.EthernetQueue\""
par ProactiveSwitch.r1.eth[1].queue displayStringTextFormat "\"contains %p pk (%l) pushed %u\\npulled %o removed %r dropped %d\""
par ProactiveSwitch.r1.eth[1].queue packetCapacity 1000
par ProactiveSwitch.r1.eth[1].queue dataCapacity -1b
attr unit b
par ProactiveSwitch.r1.eth[1].queue dropperClass "\"inet::queueing::PacketAtCollectionEndDropper\""
par ProactiveSwitch.r1.eth[1].queue comparatorClass "\"inet::EthernetFrameTypeComparator\""
par ProactiveSwitch.r1.eth[1].queue bufferModule "\"\""
scalar ProactiveSwitch.r1.eth[1].queue queueLength:last 0
attr autoWarmupFilter false
attr interpolationmode sample-hold
attr recordingmode last
attr source "warmup(atomic(constant0(packetPushEnded) + count(packetPushStarted) - count(packetPulled) - count(packetRemoved) - count(packetDropped)))"
attr title "queue length, last"
attr unit pk
scalar ProactiveSwitch.r1.eth[1].queue queueLength:max 3
attr autoWarmupFilter false
attr interpolationmode sample-hold
attr recordingmode max
attr source "warmup(atomic(constant0(packetPushEnded) + count(packetPushStarted) - count(packetPulled) - count(packetRemoved) - count(packetDropped)))"
attr title "queue length, max"
attr unit pk
scalar ProactiveSwitch.r1.eth[1].queue queueLength:timeavg 1.418e-06
attr autoWarmupFilter false
attr interpolationmode sample-hold
attr recordingmode timeavg
attr source "warmup(atomic(constant0(packetPushEnded) + count(packetPushStarted) - count(packetPulled) - count(packetRemoved) - count(packetDropped)))"
attr title "queue length, timeavg"
attr unit pk
scalar ProactiveSwitch.r1.eth[1].queue queueBitLength:last 0
attr autoWarmupFilter false
attr interpolationmode sample-hold
attr recordingmode last
attr source "warmup(atomic(constant0(packetPushEnded) + sum(packetLength(packetPushStarted)) - sum(packetLength(packetPulled)) - sum(packetLength(packetRemoved)) - sum(packetLength(packetDropped))))"
attr title "queue bit length, last"
attr unit b
scalar ProactiveSwitch.r1.eth[1].queue queueBitLength:max 2928
attr autoWarmupFilter false
attr interpolationmode sample-hold
attr recordingmode max
attr source "warmup(atomic(constant0(packetPushEnded) + sum(packetLength(packetPushStarted)) - sum(packetLength(packetPulled)) - sum(packetLength(packetRemoved)) - sum(packetLength(packetDropped))))"
attr title "queue bit length, max"
attr unit b
scalar ProactiveSwitch.r1.eth[1].queue queueBitLength:timeavg 0.00135088
attr autoWarmupFilter false
attr interpolationmode sample-hold
attr recordingmode timeavg
attr source "warmup(atomic(constant0(packetPushEnded) + sum(packetLength(packetPushStarted)) - sum(packetLength(packetPulled)) - sum(packetLength(packetRemoved)) - sum(packetLength(packetDropped))))"
attr title "queue bit length, timeavg"
attr unit b
statistic ProactiveSwitch.r1.eth[1].queue queueingTime:histogram
field count 33
field mean 2.5781818181818e-06
field stddev 7.2453094544615e-06
field min 0
field max 2.864e-05
field sum 8.508e-05
field sqrsum 1.899176e-09
attr interpolationmode none
attr recordingmode histogram
attr source queueingTime(packetPulled)
attr title "queueing times"
attr unit s
bin	-inf	0
bin	0	28
bin	5e-07	0
bin	1e-06	0
bin	1.5e-06	0
bin	2e-06	0
bin	2.5e-06	0
bin	3e-06	0
bin	3.5e-06	0
bin	4e-06	0
bin	4.5e-06	0
bin	5e-06	1
bin	5.5e-06	0
bin	6e-06	0
bin	6.5e-06	0
bin	7e-06	1
bin	7.5e-06	0
bin	8e-06	0
bin	8.5e-06	0
bin	9e-06	0
bin	9.5e-06	0
bin	1e-05	0
bin	1.05e-05	0
bin	1.1e-05	0
bin	1.15e-05	0
bin	1.2e-05	0
bin	1.25e-05	0
bin	1.3e-05	0
bin	1.35e-05	0
bin	1.4e-05	0
bin	1.45e-05	0
bin	1.5e-05	0
bin	1.55e-05	0
bin	1.6e-05	0
bin	1.65e-05	0
bin	1.7e-05	0
bin	1.75e-05	1
bin	1.8e-05	0
bin	1.85e-05	0
bin	1.9e-05	0
bin	1.95e-05	0
bin	2e-05	0
bin	2.05e-05	0
bin	2.1e-05	0
bin	2.15e-05	0
bin	2.2e-05	0
bin	2.25e-05	0
bin	2.3e-05	0
bin	2.35e-05	0
bin	2.4e-05	0
bin	2.45e-05	0
bin	2.5e-05	0
bin	2.55e-05	0
bin	2.6e-05	1
bin	2.65e-05	0
bin	2.7e-05	0
bin	2.75e-05	0
bin	2.8e-05	0
bin	2.85e-05	1
bin	2.9e-05	0
bin	2.95e-05	0
bin	3e-05	0
bin	3.05e-05	0
bin	3.1e-05	0
bin	3.15e-05	0
bin	3.2e-05	0
bin	3.25e-05	0
bin	3.3e-05	0
bin	3.35e-05	0
bin	3.4e-05	0
bin	3.45e-05	0
bin	3.5e-05	0
bin	3.55e-05	0
bin	3.6e-05	0
scalar ProactiveSwitch.r1.eth[1].queue outgoingPackets:count 33
attr recordingmode count
attr source packetPulled
attr title "outgoing packets, count"
attr unit pk
scalar ProactiveSwitch.r1.eth[1].queue outgoingPacketLengths:sum 52464
attr interpolationmode none
attr recordingmode sum
attr source packetLength(packetPulled)
attr title "outgoing packet lengths, sum"
attr unit b
statistic ProactiveSwitch.r1.eth[1].queue outgoingPacketLengths:histogram
field count 33
field mean 1589.8181818182
field stddev 1529.4956982316
field min 368
field max 4464
field sum 52464
field sqrsum 158267648
attr interpolationmode none
attr recordingmode histogram
attr source packetLength(packetPulled)
attr title "outgoing packet lengths"
attr unit b
bin	-inf	0
bin	0	0
bin	100	0
bin	200	0
bin	300	1
bin	400	0
bin	500	4
bin	600	9
bin	700	0
bin	800	2
bin	900	1
bin	1000	3
bin	1100	3
bin	1200	3
bin	1300	0
bin	1400	0
bin	1500	0
bin	1600	0
bin	1700	0
bin	1800	0
bin	1900	0
bin	2000	0
bin	2100	0
bin	2200	0
bin	2300	0
bin	2400	0
bin	2500	0
bin	2600	0
bin	2700	0
bin	2800	0
bin	2900	0
bin	3000	0
bin	3100	0
bin	3200	0
bin	3300	0
bin	3400	0
bin	3500	0
bin	3600	0
bin	3700	0
bin	3800	0
bin	3900	0
bin	4000	0
bin	4100	0
bin	4200	0
bin	4300	0
bin	4400	7
bin	4500	0
bin	4600	0
bin	4700	0
bin	4800	0
bin	4900	0
bin	5000	0
bin	5100	0
bin	5200	0
bin	5300	0
bin	5400	0
bin	5500	0
statistic ProactiveSwitch.r1.eth[1].queue flowQueueingTime:histogram
field count 0
field mean -nan(ind)
field stddev nan
field min nan
field max nan
field sum 0
field sqrsum 0
attr interpolationmode none
attr recordingmode histogram
attr source queueingTime(demuxFlow(packetPulled))
attr title "flow queueing times"
attr unit s
bin	-inf	0
bin	0	0
bin	1	0
scalar ProactiveSwitch.r1.eth[1].queue incomingPackets:count 33
attr recordingmode count
attr source packetPushStarted
attr title "incoming packets, count"
attr unit pk
scalar ProactiveSwitch.r1.eth[1].queue incomingPacketLengths:sum 52464
attr interpolationmode none
attr recordingmode sum
attr source packetLength(packetPushStarted)
attr title "incoming packet lengths, sum"
attr unit b
statistic ProactiveSwitch.r1.eth[1].queue incomingPacketLengths:histogram
field count 33
field mean 1589.8181818182
field stddev 1529.4956982316
field min 368
field max 4464
field sum 52464
field sqrsum 158267648
attr interpolationmode none
attr recordingmode histogram
attr source packetLength(packetPushStarted)
attr title "incoming packet lengths"
attr unit b
bin	-inf	0
bin	0	0
bin	100	0
bin	200	0
bin	300	1
bin	400	0
bin	500	4
bin	600	9
bin	700	0
bin	800	2
bin	900	1
bin	1000	3
bin	1100	3
bin	1200	3
bin	1300	0
bin	1400	0
bin	1500	0
bin	1600	0
bin	1700	0
bin	1800	0
bin	1900	0
bin	2000	0
bin	2100	0
bin	2200	0
bin	2300	0
bin	2400	0
bin	2500	0
bin	2600	0
bin	2700	0
bin	2800	0
bin	2900	0
bin	3000	0
bin	3100	0
bin	3200	0
bin	3300	0
bin	3400	0
bin	3500	0
bin	3600	0
bin	3700	0
bin	3800	0
bin	3900	0
bin	4000	0
bin	4100	0
bin	4200	0
bin	4300	0
bin	4400	7
bin	4500	0
bin	4600	0
bin	4700	0
bin	4800	0
bin	4900	0
bin	5000	0
bin	5100	0
bin	5200	0
bin	5300	0
bin	5400	0
bin	5500	0
scalar ProactiveSwitch.r1.eth[1].queue droppedPacketsQueueOverflow:count 0
attr interpolationmode none
attr recordingmode count
attr source packetDropReasonIsQueueOverflow(packetDropped)
attr title "dropped packets: queue overflow, count"
attr unit pk
scalar ProactiveSwitch.r1.eth[1].queue droppedPacketLengthsQueueOverflow:sum 0
attr interpolationmode none
attr recordingmode sum
attr source packetLength(packetDropReasonIsQueueOverflow(packetDropped))
attr title "dropped packet lengths: queue overflow, sum"
attr unit b
par ProactiveSwitch.r1.eth[1].mac typename "\"inet.linklayer.ethernet.basic.EthernetMac\""
par ProactiveSwitch.r1.eth[1].mac interfaceTableModule "\"ProactiveSwitch.r1.interfaceTable\""
par ProactiveSwitch.r1.eth[1].mac displayStringTextFormat "\"rate: %b\\nsent: %s, rcvd: %r\\nqueue: %q, drop: %d\""
par ProactiveSwitch.r1.eth[1].mac sendRawBytes false
par ProactiveSwitch.r1.eth[1].mac promiscuous false
par ProactiveSwitch.r1.eth[1].mac duplexMode true
par ProactiveSwitch.r1.eth[1].mac mtu 1500B
attr unit B
par ProactiveSwitch.r1.eth[1].mac fcsMode "\"declared\""
attr enum declared,computed
par ProactiveSwitch.r1.eth[1].mac stopOperationExtraTime -1s
attr unit s
par ProactiveSwitch.r1.eth[1].mac stopOperationTimeout 2s
attr unit s
scalar ProactiveSwitch.r1.eth[1].mac "simulated time" 60
scalar ProactiveSwitch.r1.eth[1].mac full-duplex 1
scalar ProactiveSwitch.r1.eth[1].mac "frames/sec sent" 0.55
scalar ProactiveSwitch.r1.eth[1].mac "frames/sec rcvd" 0.41666666666667
scalar ProactiveSwitch.r1.eth[1].mac "bits/sec sent" 876.8
scalar ProactiveSwitch.r1.eth[1].mac "bits/sec rcvd" 327.46666666667
scalar ProactiveSwitch.r1.eth[1].mac "rx channel idle (%)" 99.999645866667
scalar ProactiveSwitch.r1.eth[1].mac "rx channel utilization (%)" 0.00035413333333333
scalar ProactiveSwitch.r1.eth[1].mac txPk:count 33
attr interpolationmode none
attr recordingmode count
attr source packetSentToLower
attr title "packets transmitted, count"
scalar ProactiveSwitch.r1.eth[1].mac txPk:sum(packetBytes) 6576
attr interpolationmode none
attr recordingmode sum(packetBytes)
attr source packetSentToLower
attr title "packets transmitted, sum(packetBytes)"
scalar ProactiveSwitch.r1.eth[1].mac packetReceivedFromUpper:count 33
attr interpolationmode none
attr recordingmode count
attr source packetReceivedFromUpper
attr title "packet bytes from higher layer, count"
scalar ProactiveSwitch.r1.eth[1].mac packetReceivedFromUpper:sum(packetBytes) 6558
attr interpolationmode none
attr recordingmode sum(packetBytes)
attr source packetReceivedFromUpper
attr title "packet bytes from higher layer, sum(packetBytes)"
scalar ProactiveSwitch.r1.eth[1].mac passedUpPk:count 25
attr interpolationmode none
attr recordingmode count
attr source packetSentToUpper
attr title "packets passed to higher layer, count"
scalar ProactiveSwitch.r1.eth[1].mac passedUpPk:sum(packetBytes) 2456
attr interpolationmode none
attr recordingmode sum(packetBytes)
attr source packetSentToUpper
attr title "packets passed to higher layer, sum(packetBytes)"
scalar ProactiveSwitch.r1.eth[1].mac packetDropIncorrectlyReceived:count 0
attr interpolationmode none
attr recordingmode count
attr source packetDropReasonIsIncorrectlyReceived(packetDropped)
attr title "packet drop: incorrectly received, count"
scalar ProactiveSwitch.r1.eth[1].mac packetDropIncorrectlyReceived:sum(packetBytes) 0
attr interpolationmode none
attr recordingmode sum(packetBytes)
attr source packetDropReasonIsIncorrectlyReceived(packetDropped)
attr title "packet drop: incorrectly received, sum(packetBytes)"
scalar ProactiveSwitch.r1.eth[1].mac packetDropInterfaceDown:count 0
attr interpolationmode none
attr recordingmode count
attr source packetDropReasonIsInterfaceDown(packetDropped)
attr title "packet drop: interface down, count"
scalar ProactiveSwitch.r1.eth[1].mac packetDropInterfaceDown:sum(packetBytes) 0
attr interpolationmode none
attr recordingmode sum(packetBytes)
attr source packetDropReasonIsInterfaceDown(packetDropped)
attr title "packet drop: interface down, sum(packetBytes)"
scalar ProactiveSwitch.r1.eth[1].mac packetDropNotAddressedToUs:count 0
attr interpolationmode none
attr recordingmode count
attr source packetDropReasonIsNotAddressedToUs(packetDropped)
attr title "packet drop: not addressed to us, count"
scalar ProactiveSwitch.r1.eth[1].mac packetDropNotAddressedToUs:sum(packetBytes) 0
attr interpolationmode none
attr recordingmode sum(packetBytes)
attr source packetDropReasonIsNotAddressedToUs(packetDropped)
attr title "packet drop: not addressed to us, sum(packetBytes)"
scalar ProactiveSwitch.r1.eth[1].mac rxPausePkUnits:count 0
attr interpolationmode none
attr recordingmode count
attr title "pause units received, count"
scalar ProactiveSwitch.r1.eth[1].mac rxPausePkUnits:sum 0
attr interpolationmode none
attr recordingmode sum
attr title "pause units received, sum"
scalar ProactiveSwitch.r1.eth[1].mac txPausePkUnits:count 0
attr interpolationmode none
attr recordingmode count
attr title "pause units sent, count"
scalar ProactiveSwitch.r1.eth[1].mac txPausePkUnits:sum 0
attr interpolationmode none
attr recordingmode sum
attr title "pause units sent, sum"
scalar ProactiveSwitch.r1.eth[1].mac rxPkOk:count 25
attr interpolationmode none
attr recordingmode count
attr source rxPkOk
[...]
attr unit bps
par ProactiveSwitch.hostB.eth[0] fcsMode "\"declared\""
attr enum declared,computed
scalar ProactiveSwitch.hostB.eth[0] packetDropInterfaceDown:count 0
attr interpolationmode none
attr recordingmode count
attr source packetDropReasonIsInterfaceDown(packetDropped)
attr title "packet drops: interface down, count"
scalar ProactiveSwitch.hostB.eth[0] packetDropInterfaceDown:sum(packetBytes) 0
attr interpolationmode none
attr recordingmode sum(packetBytes)
attr source packetDropReasonIsInterfaceDown(packetDropped)
attr title "packet drops: interface down, sum(packetBytes)"
scalar ProactiveSwitch.hostB.eth[0] packetDropNoCarrier:count 0
attr interpolationmode none
attr recordingmode count
attr source packetDropReasonIsNoCarrier(packetDropped)
attr title "packet drops: no carrier, count"
scalar ProactiveSwitch.hostB.eth[0] packetDropNoCarrier:sum(packetBytes) 0
attr interpolationmode none
attr recordingmode sum(packetBytes)
attr source packetDropReasonIsNoCarrier(packetDropped)
attr title "packet drops: no carrier, sum(packetBytes)"
par ProactiveSwitch.hostB.ipv4.transportIn.channel typename "\"ned.IdealChannel\""
par ProactiveSwitch.hostB.ipv4.up.out[0].channel typename "\"ned.IdealChannel\""
par ProactiveSwitch.hostB.ipv4.lp.out[2].channel typename "\"ned.IdealChannel\""
par ProactiveSwitch.hostB.ipv4.ifIn.channel typename "\"ned.IdealChannel\""
par ProactiveSwitch.hostB.ipv4.configurator typename "\"inet.networklayer.configurator.ipv4.Ipv4NodeConfigurator\""
par ProactiveSwitch.hostB.ipv4.configurator interfaceTableModule "\"ProactiveSwitch.hostB.interfaceTable\""
par ProactiveSwitch.hostB.ipv4.configurator routingTableModule "\"ProactiveSwitch.hostB.ipv4.routingTable\""
par ProactiveSwitch.hostB.ipv4.configurator networkConfiguratorModule "\"configurator\""
par ProactiveSwitch.hostB.ipv4.configurator configureRoutingTable true
par ProactiveSwitch.hostB.ipv4.routingTable typename "\"inet.networklayer.ipv4.Ipv4RoutingTable\""
par ProactiveSwitch.hostB.ipv4.routingTable interfaceTableModule "\"ProactiveSwitch.hostB.interfaceTable\""
par ProactiveSwitch.hostB.ipv4.routingTable routerId "\"auto\""
par ProactiveSwitch.hostB.ipv4.routingTable netmaskRoutes "\"*\""
par ProactiveSwitch.hostB.ipv4.routingTable forwarding false
par ProactiveSwitch.hostB.ipv4.routingTable multicastForwarding false
par ProactiveSwitch.hostB.ipv4.routingTable useAdminDist false
par ProactiveSwitch.hostB.ipv4.routingTable routingFile "\"\""
par ProactiveSwitch.hostB.ipv4.natTable typename "\"inet.networklayer.ipv4.Ipv4NatTable\""
par ProactiveSwitch.hostB.ipv4.natTable networkProtocolModule "\"^.ip\""
par ProactiveSwitch.hostB.ipv4.natTable config "<config/> at content:1"
par ProactiveSwitch.hostB.ipv4.up typename "\"inet.common.MessageDispatcher\""
par ProactiveSwitch.hostB.ipv4.up displayStringTextFormat "\"processed %p pk (%l)\""
par ProactiveSwitch.hostB.ipv4.up forwardServiceRegistration true
par ProactiveSwitch.hostB.ipv4.up forwardProtocolRegistration true
par ProactiveSwitch.hostB.ipv4.igmp typename "\"inet.networklayer.ipv4.Igmpv2\""
par ProactiveSwitch.hostB.ipv4.igmp interfaceTableModule "\"ProactiveSwitch.hostB.interfaceTable\""
par ProactiveSwitch.hostB.ipv4.igmp routingTableModule "\"ProactiveSwitch.hostB.ipv4.routingTable\""
par ProactiveSwitch.hostB.ipv4.igmp crcMode "\"declared\""
attr enum declared,computed
par ProactiveSwitch.hostB.ipv4.igmp enabled true
par ProactiveSwitch.hostB.ipv4.igmp robustnessVariable 2
par ProactiveSwitch.hostB.ipv4.igmp queryInterval 125s
attr unit s
par ProactiveSwitch.hostB.ipv4.igmp queryResponseInterval 10s
attr unit s
par ProactiveSwitch.hostB.ipv4.igmp groupMembershipInterval 260s
attr unit s
par ProactiveSwitch.hostB.ipv4.igmp otherQuerierPresentInterval 255s
attr unit s
par ProactiveSwitch.hostB.ipv4.igmp startupQueryInterval 31.25s
attr unit s
par ProactiveSwitch.hostB.ipv4.igmp startupQueryCount 2
par ProactiveSwitch.hostB.ipv4.igmp lastMemberQueryInterval 1s
attr unit s
par ProactiveSwitch.hostB.ipv4.igmp lastMemberQueryCount 2
par ProactiveSwitch.hostB.ipv4.igmp unsolicitedReportInterval 10s
attr unit s
par ProactiveSwitch.hostB.ipv4.icmp typename "\"inet.networklayer.ipv4.Icmp\""
par ProactiveSwitch.hostB.ipv4.icmp interfaceTableModule "\"ProactiveSwitch.hostB.interfaceTable\""
par ProactiveSwitch.hostB.ipv4.icmp routingTableModule "\"ProactiveSwitch.hostB.ipv4.routingTable\""
par ProactiveSwitch.hostB.ipv4.icmp crcMode "\"declared\""
attr enum declared,computed
attr mutable ""
par ProactiveSwitch.hostB.ipv4.icmp quoteLength 8B
attr mutable ""
attr unit B
par ProactiveSwitch.hostB.ipv4.mp typename "\"inet.common.MessageDispatcher\""
par ProactiveSwitch.hostB.ipv4.mp displayStringTextFormat "\"processed %p pk (%l)\""
par ProactiveSwitch.hostB.ipv4.mp forwardServiceRegistration true
par ProactiveSwitch.hostB.ipv4.mp forwardProtocolRegistration true
par ProactiveSwitch.hostB.ipv4.ip typename "\"inet.networklayer.ipv4.Ipv4\""
par ProactiveSwitch.hostB.ipv4.ip interfaceTableModule "\"ProactiveSwitch.hostB.interfaceTable\""
par ProactiveSwitch.hostB.ipv4.ip routingTableModule "\"ProactiveSwitch.hostB.ipv4.routingTable\""
par ProactiveSwitch.hostB.ipv4.ip arpModule "\"ProactiveSwitch.hostB.ipv4.arp\""
par ProactiveSwitch.hostB.ipv4.ip icmpModule "\"ProactiveSwitch.hostB.ipv4.icmp\""
par ProactiveSwitch.hostB.ipv4.ip crcMode "\"declared\""
attr enum declared,computed
par ProactiveSwitch.hostB.ipv4.ip timeToLive 32
par ProactiveSwitch.hostB.ipv4.ip multicastTimeToLive 32
par ProactiveSwitch.hostB.ipv4.ip fragmentTimeout 60s
attr unit s
par ProactiveSwitch.hostB.ipv4.ip limitedBroadcast false
par ProactiveSwitch.hostB.ipv4.ip directBroadcastInterfaces "\"\""
scalar ProactiveSwitch.hostB.ipv4.ip packetDropAddressResolutionFailed:count 0
attr interpolationmode none
attr recordingmode count
attr source packetDropReasonIsAddressResolutionFailed(packetDropped)
attr title "packet drop: address resolution failed, count"
scalar ProactiveSwitch.hostB.ipv4.ip packetDropAddressResolutionFailed:sum(packetBytes) 0
attr interpolationmode none
attr recordingmode sum(packetBytes)
attr source packetDropReasonIsAddressResolutionFailed(packetDropped)
attr title "packet drop: address resolution failed, sum(packetBytes)"
scalar ProactiveSwitch.hostB.ipv4.ip packetDropHopLimitReached:count 0
attr interpolationmode none
attr recordingmode count
attr source packetDropReasonIsHopLimitReached(packetDropped)
attr title "packet drop: hop limit reached, count"
scalar ProactiveSwitch.hostB.ipv4.ip packetDropHopLimitReached:sum(packetBytes) 0
attr interpolationmode none
attr recordingmode sum(packetBytes)
attr source packetDropReasonIsHopLimitReached(packetDropped)
attr title "packet drop: hop limit reached, sum(packetBytes)"
scalar ProactiveSwitch.hostB.ipv4.ip packetDropForwardingDisabled:count 0
attr interpolationmode none
attr recordingmode count
attr source packetDropReasonIsForwardingDisabled(packetDropped)
attr title "packet drop: forwarding disabled, count"
scalar ProactiveSwitch.hostB.ipv4.ip packetDropForwardingDisabled:sum(packetBytes) 0
attr interpolationmode none
attr recordingmode sum(packetBytes)
attr source packetDropReasonIsForwardingDisabled(packetDropped)
attr title "packet drop: forwarding disabled, sum(packetBytes)"
scalar ProactiveSwitch.hostB.ipv4.ip packetDropNoInterfaceFound:count 0
attr interpolationmode none
attr recordingmode count
attr source packetDropReasonIsNoInterfaceFound(packetDropped)
attr title "packet drop: no interface found, count"
scalar ProactiveSwitch.hostB.ipv4.ip packetDropNoInterfaceFound:sum(packetBytes) 0
attr interpolationmode none
attr recordingmode sum(packetBytes)
attr source packetDropReasonIsNoInterfaceFound(packetDropped)
attr title "packet drop: no interface found, sum(packetBytes)"
scalar ProactiveSwitch.hostB.ipv4.ip packetDropNoRouteFound:count 0
attr interpolationmode none
attr recordingmode count
attr source packetDropReasonIsNoRouteFound(packetDropped)
attr title "packet drop: no route found, count"
scalar ProactiveSwitch.hostB.ipv4.ip packetDropUndefined:count 0
attr interpolationmode none
attr recordingmode count
attr source packetDropReasonIsUndefined(packetDropped)
attr title "packet drop: undefined, count"
scalar ProactiveSwitch.hostB.ipv4.ip packetDropUndefined:sum(packetBytes) 0
attr interpolationmode none
attr recordingmode sum(packetBytes)
attr source packetDropReasonIsUndefined(packetDropped)
attr title "packet drop: undefined, sum(packetBytes)"
par ProactiveSwitch.hostB.ipv4.arp typename "\"inet.networklayer.arp.ipv4.Arp\""
par ProactiveSwitch.hostB.ipv4.arp interfaceTableModule "\"ProactiveSwitch.hostB.interfaceTable\""
par ProactiveSwitch.hostB.ipv4.arp routingTableModule "\"ProactiveSwitch.hostB.ipv4.routingTable\""
par ProactiveSwitch.hostB.ipv4.arp retryTimeout 1s
attr unit s
par ProactiveSwitch.hostB.ipv4.arp retryCount 3
par ProactiveSwitch.hostB.ipv4.arp cacheTimeout 120s
attr unit s
par ProactiveSwitch.hostB.ipv4.arp proxyArpInterfaces "\"\""
scalar ProactiveSwitch.hostB.ipv4.arp arpReplySent:count 1
attr recordingmode count
attr source arpReplySent
attr title "ARP replies sent, count"
scalar ProactiveSwitch.hostB.ipv4.arp arpReplySent:sum(packetBytes) 28
attr recordingmode sum(packetBytes)
attr source arpReplySent
attr title "ARP replies sent, sum(packetBytes)"
scalar ProactiveSwitch.hostB.ipv4.arp arpRequestSent:count 0
attr recordingmode count
attr source arpRequestSent
attr title "ARP request sent, count"
scalar ProactiveSwitch.hostB.ipv4.arp arpRequestSent:sum(packetBytes) 0
attr recordingmode sum(packetBytes)
attr source arpRequestSent
attr title "ARP request sent, sum(packetBytes)"
scalar ProactiveSwitch.hostB.ipv4.arp arpResolutionFailed:count 0
attr recordingmode count
attr title "ARP failed resolutions, count"
scalar ProactiveSwitch.hostB.ipv4.arp arpResolutionCompleted:count 1
attr recordingmode count
attr title "ARP completed resolutions, count"
scalar ProactiveSwitch.hostB.ipv4.arp arpResolutionInitiated:count 0
attr recordingmode count
attr title "ARP initiated resolutions, count"
par ProactiveSwitch.hostB.ipv4.lp typename "\"inet.common.MessageDispatcher\""
par ProactiveSwitch.hostB.ipv4.lp displayStringTextFormat "\"processed %p pk (%l)\""
par ProactiveSwitch.hostB.ipv4.lp forwardServiceRegistration true
par ProactiveSwitch.hostB.ipv4.lp forwardProtocolRegistration true
par ProactiveSwitch.hostB.ipv4 typename "\"inet.networklayer.ipv4.Ipv4NetworkLayer\""
par ProactiveSwitch.hostB.ipv4 forwarding false
par ProactiveSwitch.hostB.ipv4 multicastForwarding false
par ProactiveSwitch.hostB.ipv4 interfaceTableModule "\"ProactiveSwitch.hostB.interfaceTable\""
par ProactiveSwitch.hostB.ipv4 displayStringTextFormat "\"%i\""
par ProactiveSwitch.hostB.nl typename "\"inet.common.MessageDispatcher\""
par ProactiveSwitch.hostB.nl displayStringTextFormat "\"processed %p pk (%l)\""
par ProactiveSwitch.hostB.nl forwardServiceRegistration true
par ProactiveSwitch.hostB.nl forwardProtocolRegistration true
par ProactiveSwitch.hostB.udp typename "\"inet.transportlayer.udp.Udp\""
par ProactiveSwitch.hostB.udp interfaceTableModule "\"ProactiveSwitch.hostB.interfaceTable\""
par ProactiveSwitch.hostB.udp icmpModule "\"^.ipv4.icmp\""
par ProactiveSwitch.hostB.udp icmpv6Module "\"^.ipv6.icmpv6\""
par ProactiveSwitch.hostB.udp crcMode "\"declared\""
attr enum disabled,declared,computed
par ProactiveSwitch.hostB.udp defaultMulticastLoop true
scalar ProactiveSwitch.hostB.udp packetReceived:count 50
attr interpolationmode none
attr recordingmode count
attr source packetReceived
attr title "packets received, count"
scalar ProactiveSwitch.hostB.udp packetReceived:sum(packetBytes) 26000
attr interpolationmode none
attr recordingmode sum(packetBytes)
attr source packetReceived
attr title "packets received, sum(packetBytes)"
scalar ProactiveSwitch.hostB.udp packetSent:count 0
attr interpolationmode none
attr recordingmode count
attr source packetSent
attr title "packets sent, count"
scalar ProactiveSwitch.hostB.udp packetSent:sum(packetBytes) 0
attr interpolationmode none
attr recordingmode sum(packetBytes)
attr source packetSent
attr title "packets sent, sum(packetBytes)"
scalar ProactiveSwitch.hostB.udp passedUpPk:count 50
attr interpolationmode none
attr recordingmode count
attr source packetSentToUpper
attr title "packets passed up, count"
scalar ProactiveSwitch.hostB.udp droppedPkWrongPort:count 0
attr interpolationmode none
attr recordingmode count
attr source packetDropReasonIsNoPortFound(packetDropped)
attr title "packets dropped (wrong port), count"
scalar ProactiveSwitch.hostB.udp droppedPkBadChecksum:count 0
attr interpolationmode none
attr recordingmode count
attr source packetDropReasonIsIncorrectlyReceived(packetDropped)
attr title "packets dropped (checksum error), count"
par ProactiveSwitch.hostB.tcp typename "\"inet.transportlayer.tcp.Tcp\""
par ProactiveSwitch.hostB.tcp crcMode "\"declared\""
attr enum declared,computed
par ProactiveSwitch.hostB.tcp advertisedWindow 7504
par ProactiveSwitch.hostB.tcp delayedAcksEnabled false
par ProactiveSwitch.hostB.tcp nagleEnabled true
par ProactiveSwitch.hostB.tcp limitedTransmitEnabled false
par ProactiveSwitch.hostB.tcp increasedIWEnabled false
par ProactiveSwitch.hostB.tcp sackSupport false
par ProactiveSwitch.hostB.tcp windowScalingSupport false
par ProactiveSwitch.hostB.tcp windowScalingFactor -1
par ProactiveSwitch.hostB.tcp timestampSupport false
par ProactiveSwitch.hostB.tcp mss 536
par ProactiveSwitch.hostB.tcp msl 120s
attr unit s
par ProactiveSwitch.hostB.tcp tcpAlgorithmClass "\"TcpReno\""
par ProactiveSwitch.hostB.tcp useDataNotification false
par ProactiveSwitch.hostB.tcp dupthresh 3
par ProactiveSwitch.hostB.tcp initialSsthresh 4294967295
par ProactiveSwitch.hostB.tcp stopOperationExtraTime 0s
attr unit s
par ProactiveSwitch.hostB.tcp stopOperationTimeout 2s
attr unit s
par ProactiveSwitch.hostB.tcp ecnWillingness false
par ProactiveSwitch.hostB.tcp dctcpGamma 0.0625
par ProactiveSwitch.hostB.tn typename "\"inet.common.MessageDispatcher\""
par ProactiveSwitch.hostB.tn displayStringTextFormat "\"processed %p pk (%l)\""
par ProactiveSwitch.hostB.tn forwardServiceRegistration true
par ProactiveSwitch.hostB.tn forwardProtocolRegistration true
par ProactiveSwitch.hostB.app[0] typename "\"inet.applications.udpapp.UdpSink\""
par ProactiveSwitch.hostB.app[0] interfaceTableModule "\"ProactiveSwitch.hostB.interfaceTable\""
par ProactiveSwitch.hostB.app[0] startTime 0s
attr unit s
par ProactiveSwitch.hostB.app[0] stopTime -1s
attr unit s
par ProactiveSwitch.hostB.app[0] localPort 5000
par ProactiveSwitch.hostB.app[0] receiveBroadcast false
par ProactiveSwitch.hostB.app[0] multicastGroup "\"\""
par ProactiveSwitch.hostB.app[0] multicastSources "\"\""
par ProactiveSwitch.hostB.app[0] stopOperationExtraTime -1s
attr unit s
par ProactiveSwitch.hostB.app[0] stopOperationTimeout 2s
attr unit s
scalar ProactiveSwitch.hostB.app[0] packetReceived:count 50
attr interpolationmode none
attr recordingmode count
attr source packetReceived
attr title "packets received, count"
statistic ProactiveSwitch.hostB.app[0] endToEndDelay:histogram
field count 50
field mean 0.0001819888
field stddev 3.3149165902108e-06
field min 0.00018152
field max 0.00020496
field sum 0.00909944
field sqrsum 1.6565346112e-06
attr interpolationmode none
attr recordingmode histogram
attr source dataAge(packetReceived)
attr title "end-to-end delay"
attr unit s
bin	-inf	0
bin	0.0001755	0
bin	0.000176	0
bin	0.0001765	0
bin	0.000177	0
bin	0.0001775	0
bin	0.000178	0
bin	0.0001785	0
bin	0.000179	0
bin	0.0001795	0
bin	0.00018	0
bin	0.0001805	0
bin	0.000181	0
bin	0.0001815	49
bin	0.000182	0
bin	0.0001825	0
bin	0.000183	0
bin	0.0001835	0
bin	0.000184	0
bin	0.0001845	0
bin	0.000185	0
bin	0.0001855	0
bin	0.000186	0
bin	0.0001865	0
bin	0.000187	0
bin	0.0001875	0
bin	0.000188	0
bin	0.0001885	0
bin	0.000189	0
bin	0.0001895	0
bin	0.00019	0
bin	0.0001905	0
bin	0.000191	0
bin	0.0001915	0
bin	0.000192	0
bin	0.0001925	0
bin	0.000193	0
bin	0.0001935	0
bin	0.000194	0
bin	0.0001945	0
bin	0.000195	0
bin	0.0001955	0
bin	0.000196	0
bin	0.0001965	0
bin	0.000197	0
bin	0.0001975	0
bin	0.000198	0
bin	0.0001985	0
bin	0.000199	0
bin	0.0001995	0
bin	0.0002	0
bin	0.0002005	0
bin	0.000201	0
bin	0.0002015	0
bin	0.000202	0
bin	0.0002025	0
bin	0.000203	0
bin	0.0002035	0
bin	0.000204	0
bin	0.0002045	1
bin	0.000205	0
bin	0.0002055	0
bin	0.000206	0
bin	0.0002065	0
bin	0.000207	0
bin	0.0002075	0
bin	0.000208	0
bin	0.0002085	0
bin	0.000209	0
bin	0.0002095	0
bin	0.00021	0
bin	0.0002105	0
bin	0.000211	0
par ProactiveSwitch.hostB.at typename "\"inet.common.MessageDispatcher\""
par ProactiveSwitch.hostB.at displayStringTextFormat "\"processed %p pk (%l)\""
par ProactiveSwitch.hostB.at forwardServiceRegistration true
par ProactiveSwitch.hostB.at forwardProtocolRegistration true
par ProactiveSwitch.hostB typename "\"inet.node.inet.StandardHost\""
par ProactiveSwitch.hostB hasStatus false
par ProactiveSwitch.hostB osgModel "\"\""
par ProactiveSwitch.hostB osgModelColor "\"\""
par ProactiveSwitch.hostB canvasImage "\"\""
par ProactiveSwitch.hostB canvasImageColor "\"\""
par ProactiveSwitch.hostB recordPcap false
par ProactiveSwitch.hostB numPcapRecorders 0
par ProactiveSwitch.hostB numLoInterfaces 1
par ProactiveSwitch.hostB numWlanInterfaces 0
par ProactiveSwitch.hostB numEthInterfaces 0
par ProactiveSwitch.hostB numPppInterfaces 0
par ProactiveSwitch.hostB numTunInterfaces 0
par ProactiveSwitch.hostB numVirtInterfaces 0
par ProactiveSwitch.hostB fcsMode "\"declared\""
attr enum declared,computed
par ProactiveSwitch.hostB hasIpv4 true
par ProactiveSwitch.hostB hasIpv6 false
par ProactiveSwitch.hostB hasGn false
par ProactiveSwitch.hostB forwarding false
par ProactiveSwitch.hostB multicastForwarding false
par ProactiveSwitch.hostB hasUdp true
par ProactiveSwitch.hostB hasTcp true
par ProactiveSwitch.hostB hasSctp false
par ProactiveSwitch.hostB numApps 1
par ProactiveSwitch.configurator typename "\"inet.networklayer.configurator.ipv4.Ipv4NetworkConfigurator\""
par ProactiveSwitch.configurator minLinkWeight 0.001
par ProactiveSwitch.configurator configureIsolatedNetworksSeparatly false
par ProactiveSwitch.configurator config "<config>...</config> at content:1"
par ProactiveSwitch.configurator assignAddresses true
par ProactiveSwitch.configurator assignUniqueAddresses true
par ProactiveSwitch.configurator assignDisjunctSubnetAddresses true
par ProactiveSwitch.configurator addStaticRoutes false
par ProactiveSwitch.configurator addDefaultRoutes false
par ProactiveSwitch.configurator addSubnetRoutes true
par ProactiveSwitch.configurator addDirectRoutes true
par ProactiveSwitch.configurator optimizeRoutes true
par ProactiveSwitch.configurator dumpTopology false
par ProactiveSwitch.configurator dumpLinks false
par ProactiveSwitch.configurator dumpAddresses false
par ProactiveSwitch.configurator dumpRoutes false
par ProactiveSwitch.configurator dumpConfig "\"\""
par ProactiveSwitch.scenarioManager typename "\"inet.common.scenario.ScenarioManager\""
par ProactiveSwitch.scenarioManager script "<script>...</script> at content:1"
par ProactiveSwitch.withdrawController typename "\"dissertationsim.controller.InterfaceWithdrawController\""
par ProactiveSwitch.withdrawController firstInterfaceModule "\"^.r2.eth[1]\""
par ProactiveSwitch.withdrawController secondInterfaceModule "\"^.r3.eth[0]\""
par ProactiveSwitch.withdrawController withdrawTime 18s
attr unit s
par ProactiveSwitch typename "\"dissertationsim.simulations.proactiveswitch.ProactiveSwitch\""

